previews/PR137/data/matpower/ACTIVSg2000.m
% Case saved by PowerWorld Simulator, version 20, build date January 28, 2018
% Case Information Header = 6 lines
% This is a synthetic power system model that does NOT represent the actual grid. It was developed as part of the US ARPA-E Grid
% Data research project and contains no CEII.
% Reference: A.B. Birchfield, T. Xu, K.M. Gegner, K.S. Shetye, and T.J. Overbye, "Grid Structural Characteristics as Validation
% Criteria for Synthetic Networks," IEEE Transactions on Power Systems, vol. 32, no. 4, pp. 3258-3265, July 2017.
%
% Case Version: Feb. 3, 2018
function mpc = ACTIVSg2000
mpc.version = '2';
mpc.baseMVA =  100.00;

%% bus data
mpc.bus = [
1001	1	20.78	5.89	0.00	0.00	1	0.9794356	-22.734844	115.00	9	1.100	0.900	25.75	-3.48	0	0
1002	1	15.41	4.37	0.00	0.00	1	1.0127364	-18.088545	115.00	9	1.100	0.900	84.21	0.49	0	0
1003	1	0.00	0.00	0.00	0.00	1	1.0092629	-17.086699	115.00	9	1.100	0.900	-6.74	0.14	0	0
1004	2	0.00	0.00	0.00	0.00	1	1.0130707	-18.933999	230.00	9	1.100	0.900	-7.08	6.03	0	0
1005	1	0.00	0.00	0.00	0.00	1	1.0055761	-16.077157	115.00	9	1.100	0.900	-52.96	-29.63	0	0
1006	2	0.00	0.00	0.00	0.00	1	1.0000000	-13.905591	13.80	9	1.100	0.900	-50.44	0.00	0	0
1007	1	7.01	1.99	0.00	-0.82	1	1.0200000	-18.467212	115.00	9	1.100	0.900	73.76	0.00	0	0
1008	1	0.00	0.00	0.00	0.00	1	1.0192851	-8.605207	115.00	9	1.100	0.900	-680.69	29.86	0	0
1009	2	0.00	0.00	0.00	0.00	1	1.0092402	-5.309598	13.80	9	1.100	0.900	-680.32	29.76	0	0
1010	1	0.00	0.00	0.00	-3.07	1	1.0200000	-16.792355	115.00	9	1.100	0.900	86.13	0.00	0	0
1011	2	0.00	0.00	0.00	0.00	1	1.0202111	-15.009826	22.00	9	1.100	0.900	86.02	0.00	0	0
1012	1	2.99	0.85	0.00	9.50	1	1.0059921	-25.342783	115.00	9	1.100	0.900	-344.59	36.10	0	0
1013	1	29.23	8.28	0.00	0.00	1	1.0056772	-15.436565	115.00	9	1.100	0.900	49.34	-0.98	0	0
1014	1	2.22	0.63	0.00	0.00	1	1.0123505	-11.913250	115.00	9	1.100	0.900	71.89	-7.32	0	0
1015	1	7.51	2.13	0.00	0.00	1	1.0218177	-18.214501	115.00	9	1.100	0.900	81.09	-0.15	0	0
1016	1	2.89	0.82	0.00	30.00	1	1.0174069	-15.485448	115.00	9	1.100	0.900	-1.91	-27.33	0	0
1017	1	18.34	5.20	0.00	0.00	1	0.9816734	-21.426222	115.00	9	1.100	0.900	26.56	-2.71	0	0
1018	1	0.07	0.02	0.00	0.00	1	0.9911469	-20.216148	115.00	9	1.100	0.900	29.91	-2.15	0	0
1019	1	61.78	17.50	0.00	142.98	1	0.9994919	-22.320417	115.00	9	1.100	0.900	21.25	-3.60	0	0
1020	1	0.00	0.00	0.00	67.23	1	1.0200000	-15.230064	115.00	9	1.100	0.900	-53.97	0.00	0	0
1021	2	0.00	0.00	0.00	0.00	1	1.0000000	-8.606761	13.80	9	1.100	0.900	-52.36	0.00	0	0
1022	1	0.00	0.00	0.00	0.00	1	1.0124231	-16.204693	115.00	9	1.100	0.900	-6.07	0.19	0	0
1023	2	0.00	0.00	0.00	0.00	1	1.0100000	-7.300393	13.80	9	1.100	0.900	-5.92	0.00	0	0
1024	1	63.04	17.86	0.00	0.00	1	0.9944951	-19.200249	115.00	9	1.100	0.900	32.46	-0.99	0	0
1025	1	0.00	0.00	0.00	0.00	1	1.0162883	-14.170406	115.00	9	1.100	0.900	-52.26	-11.84	0	0
1026	2	0.00	0.00	0.00	0.00	1	1.0000000	-4.641462	13.80	9	1.100	0.900	-49.53	0.00	0	0
1027	1	101.21	28.68	0.00	75.00	1	1.0053046	-25.833336	115.00	9	1.100	0.900	-5.64	-2.49	0	0
1028	1	10.01	2.84	0.00	0.00	1	1.0154159	-17.717136	115.00	9	1.100	0.900	-4.89	0.50	0	0
1029	1	83.18	23.57	0.00	40.00	1	1.0024174	-24.858888	115.00	9	1.100	0.900	-0.15	-0.61	0	0
1030	1	24.63	6.98	0.00	0.00	1	1.0122298	-13.411430	115.00	9	1.100	0.900	99.16	-10.05	0	0
1031	1	9.25	2.62	0.00	0.00	1	1.0121888	-17.672258	115.00	9	1.100	0.900	61.74	-0.03	0	0
1032	1	0.00	0.00	0.00	0.00	1	1.0006583	-12.280471	115.00	9	1.100	0.900	132.88	-43.51	0	0
1033	2	0.00	0.00	0.00	50.00	1	1.0167542	-16.898515	230.00	9	1.100	0.900	51.53	-22.14	0	0
1034	1	0.00	0.00	0.00	0.00	1	1.0045345	-14.320349	115.00	9	1.100	0.900	-27.54	-36.49	0	0
1035	2	0.00	0.00	0.00	0.00	1	1.0000000	-11.030416	13.80	9	1.100	0.900	-23.36	0.00	0	0
1036	1	13.60	3.85	0.00	0.00	1	0.9976248	-12.526972	115.00	9	1.100	0.900	107.44	-21.86	0	0
1037	1	102.24	28.97	0.00	0.00	1	0.9745044	-22.544800	115.00	9	1.100	0.900	27.08	-3.00	0	0
1038	1	0.00	0.00	0.00	0.00	1	1.0165674	-7.646607	115.00	9	1.100	0.900	110.79	-14.86	0	0
1039	2	0.00	0.00	0.00	0.00	1	1.0000000	-2.263052	22.00	9	1.100	0.900	112.08	0.00	0	0
1040	1	44.36	12.57	0.00	0.00	1	0.9940145	-20.480041	115.00	9	1.100	0.900	29.68	-1.71	0	0
1041	1	0.00	0.00	0.00	0.00	1	1.0017746	-15.107504	115.00	9	1.100	0.900	-1038.75	23.76	0	0
1042	2	0.00	0.00	0.00	0.00	1	1.0017746	-15.107504	13.80	9	1.100	0.900	-1038.75	23.76	0	0
1043	2	0.00	0.00	0.00	0.00	1	1.0000000	-11.864177	13.80	9	1.100	0.900	-1037.88	0.00	0	0
1044	1	14.68	4.16	0.00	0.00	1	1.0067555	-25.963881	115.00	9	1.100	0.900	-141.55	-40.27	0	0
1045	1	98.56	27.93	0.00	0.00	1	0.9774255	-24.447556	115.00	9	1.100	0.900	18.05	-3.50	0	0
1046	1	11.08	3.14	0.00	12.00	1	1.0176344	-22.491396	115.00	9	1.100	0.900	-423.42	31.55	0	0
1047	1	0.00	0.00	0.00	0.00	1	1.0052508	-13.350050	115.00	9	1.100	0.900	47.24	-1.28	0	0
1048	2	0.00	0.00	0.00	0.00	1	1.0052508	-13.350050	18.00	9	1.100	0.900	47.24	-1.28	0	0
1049	2	0.00	0.00	0.00	0.00	1	1.0052508	-13.350050	18.00	9	1.100	0.900	47.24	-1.28	0	0
1050	2	0.00	0.00	0.00	0.00	1	1.0000000	-8.284789	18.00	9	1.100	0.900	47.17	0.00	0	0
1051	2	0.00	0.00	0.00	0.00	1	1.0000000	-6.807389	18.00	9	1.100	0.900	47.05	0.00	0	0
1052	2	0.00	0.00	0.00	0.00	1	1.0000000	-9.134369	18.00	9	1.100	0.900	47.13	0.00	0	0
1053	2	0.00	0.00	0.00	0.00	1	1.0174089	-17.336160	230.00	9	1.100	0.900	46.38	-0.32	0	0
1054	1	14.99	4.25	0.00	0.00	1	1.0036844	-22.292331	115.00	9	1.100	0.900	-18.58	0.24	0	0
1055	1	3.98	1.13	0.00	0.00	1	1.0014050	-18.129563	115.00	9	1.100	0.900	-8.07	-0.03	0	0
1056	1	0.00	0.00	0.00	59.97	1	1.0200000	-21.819612	115.00	9	1.100	0.900	-20.84	0.00	0	0
1057	2	0.00	0.00	0.00	0.00	1	1.0200000	-21.819612	18.00	9	1.100	0.900	-20.84	0.00	0	0
1058	1	13.46	3.81	0.00	0.00	1	1.0193738	-11.220883	115.00	9	1.100	0.900	-585.80	13.30	0	0
1059	2	0.00	0.00	0.00	0.00	1	1.0193738	-11.220883	22.00	9	1.100	0.900	-585.80	13.30	0	0
1060	2	0.00	0.00	0.00	0.00	1	1.0193738	-11.220883	22.00	9	1.100	0.900	-585.80	13.30	0	0
1061	1	0.00	0.00	0.00	0.00	1	1.0065566	-17.219364	115.00	9	1.100	0.900	-60.92	-23.13	0	0
1062	2	0.00	0.00	0.00	0.00	1	1.0065566	-17.219364	13.80	9	1.100	0.900	-60.92	-23.13	0	0
1063	2	0.00	0.00	0.00	0.00	1	1.0065566	-17.219364	13.80	9	1.100	0.900	-60.92	-23.13	0	0
1064	1	123.76	35.07	0.00	0.00	1	0.9720345	-24.153272	115.00	9	1.100	0.900	23.25	-3.54	0	0
1065	1	0.00	0.00	0.00	0.00	1	1.0042605	-14.932578	115.00	9	1.100	0.900	-2026.49	113.31	0	0
1066	2	0.00	0.00	0.00	0.00	1	1.0000000	-7.399054	13.80	9	1.100	0.900	-2023.95	0.00	0	0
1067	1	101.55	28.77	0.00	0.00	1	0.9985952	-15.682480	115.00	9	1.100	0.900	-45.37	-60.77	0	0
1068	1	59.40	16.83	0.00	0.00	1	0.9868034	-16.436894	115.00	9	1.100	0.900	37.47	-15.81	0	0
1069	1	0.00	0.00	0.00	0.00	1	1.0225598	-8.732588	115.00	9	1.100	0.900	-619.52	14.71	0	0
1070	2	0.00	0.00	0.00	0.00	1	1.0400000	-4.228777	13.80	9	1.100	0.900	-617.12	0.00	0	0
1071	1	91.46	25.91	0.00	0.00	1	0.9870267	-21.474040	115.00	9	1.100	0.900	27.69	-3.35	0	0
1072	2	0.00	0.00	0.00	0.00	1	1.0100000	-12.110027	18.00	9	1.100	0.900	28.03	0.00	0	0
1073	2	0.00	0.00	0.00	0.00	1	1.0100000	-5.681972	18.00	9	1.100	0.900	28.34	0.00	0	0
1074	2	0.00	0.00	0.00	0.00	1	1.0100000	-7.738009	18.00	9	1.100	0.900	28.20	0.00	0	0
1075	2	0.00	0.00	0.00	0.00	1	1.0100000	-10.505543	18.00	9	1.100	0.900	28.16	0.00	0	0
1076	2	0.00	0.00	0.00	0.00	1	0.9870267	-21.474040	18.00	9	1.100	0.900	27.69	-3.35	0	0
1077	2	0.00	0.00	0.00	0.00	1	0.9870267	-21.474040	18.00	9	1.100	0.900	27.69	-3.35	0	0
1078	2	0.00	0.00	0.00	0.00	1	1.0100000	-11.024659	18.00	9	1.100	0.900	28.19	0.00	0	0
1079	2	0.00	0.00	0.00	0.00	1	1.0162141	-38.582859	500.00	9	1.100	0.900	38.02	-10.23	0	0
1080	2	0.00	0.00	0.00	0.00	1	1.0100000	-10.448676	18.00	9	1.100	0.900	28.06	0.00	0	0
1081	2	0.00	0.00	0.00	56.90	1	1.0200000	-18.691287	230.00	9	1.100	0.900	46.26	0.00	0	0
1082	2	0.00	0.00	0.00	0.00	1	1.0194126	-5.910392	115.00	9	1.100	0.900	-589.26	7.34	0	0
1083	1	39.95	11.32	0.00	26.15	1	1.0188617	-9.886743	115.00	9	1.100	0.900	102.17	-13.71	0	0
1084	2	0.00	0.00	0.00	0.00	1	1.0225199	-16.467206	115.00	9	1.100	0.900	-42.65	-7.50	0	0
1085	1	21.30	6.03	0.00	0.00	1	1.0089870	-15.342869	115.00	9	1.100	0.900	44.10	-0.93	0	0
1086	1	39.67	11.24	0.00	30.00	1	1.0153740	-17.585057	115.00	9	1.100	0.900	47.00	-1.18	0	0
1087	1	0.91	0.26	0.00	8.66	1	1.0200000	-16.125402	115.00	9	1.100	0.900	-514.20	0.00	0	0
1088	2	0.00	0.00	0.00	0.00	1	1.0000000	-11.878466	115.00	9	1.100	0.900	82.05	0.00	0	0
1089	1	40.60	11.50	0.00	0.00	1	0.9806318	-21.306753	115.00	9	1.100	0.900	-12.44	-0.27	0	0
1090	2	0.00	0.00	0.00	0.00	1	1.0200000	-16.145053	115.00	9	1.100	0.900	34.44	0.00	0	0
1091	1	11.62	3.29	0.00	0.00	1	1.0248315	-31.017725	161.00	9	1.100	0.900	-23.26	-0.76	0	0
2001	1	48.36	13.70	0.00	0.00	2	1.0017518	-59.982147	161.00	11	1.100	0.900	141.96	14.24	0	0
2002	1	0.00	0.00	0.00	0.00	2	1.0110610	-61.566631	500.00	11	1.100	0.900	148.20	16.97	0	0
2003	1	0.00	0.00	0.00	0.00	2	1.0093382	-63.828546	161.00	11	1.100	0.900	155.92	19.83	0	0
2004	2	0.00	0.00	0.00	0.00	2	1.0110610	-61.566631	13.80	11	1.100	0.900	148.20	16.97	0	0
2005	2	0.00	0.00	0.00	0.00	2	1.0110610	-61.566631	13.80	11	1.100	0.900	148.20	16.97	0	0
2006	2	0.00	0.00	0.00	0.00	2	1.0110610	-61.566631	13.80	11	1.100	0.900	148.20	16.97	0	0
2007	1	9.54	2.70	0.00	0.00	2	1.0025088	-59.751902	161.00	11	1.100	0.900	144.56	16.59	0	0
2008	1	8.06	2.28	0.00	0.00	2	1.0161296	-32.833005	161.00	10	1.100	0.900	6.86	-1.09	0	0
2009	1	39.14	11.09	0.00	113.65	2	1.0200000	-45.215386	161.00	11	1.100	0.900	19.71	0.00	0	0
2010	1	56.81	16.09	0.00	22.39	2	1.0200000	-36.405086	161.00	10	1.100	0.900	-47.20	0.00	0	0
2011	1	0.00	0.00	0.00	0.00	2	1.0388703	-32.100979	500.00	10	1.100	0.900	24.36	-0.35	0	0
2012	1	0.00	0.00	0.00	0.00	2	1.0270973	-29.869241	161.00	10	1.100	0.900	21.80	-0.72	0	0
2013	2	0.00	0.00	0.00	0.00	2	1.0305102	-29.761030	18.00	10	1.100	0.900	24.37	-0.36	0	0
2014	1	25.43	7.20	0.00	0.00	2	1.0144880	-33.408935	161.00	10	1.100	0.900	-1.87	-0.83	0	0
2015	1	4.69	1.33	0.00	0.00	2	1.0060782	-63.292789	161.00	11	1.100	0.900	247.05	17.44	0	0
2016	1	69.27	19.63	0.00	0.00	2	1.0060187	-69.954795	161.00	11	1.100	0.900	2322.91	545.82	0	0
2017	1	0.00	0.00	0.00	-200.00	2	1.0283919	-32.246830	500.00	10	1.100	0.900	21.48	0.19	0	0
2018	1	0.00	0.00	0.00	0.00	2	1.0264922	-31.456709	161.00	10	1.100	0.900	21.67	-0.10	0	0
2019	2	0.00	0.00	0.00	0.00	2	1.0283919	-32.246830	20.00	10	1.100	0.900	21.48	0.19	0	0
2020	1	47.97	13.59	0.00	0.00	2	0.9951749	-44.885383	161.00	11	1.100	0.900	25.69	4.26	0	0
2021	1	0.00	0.00	0.00	0.00	2	1.0138733	-56.702369	500.00	11	1.100	0.900	135.35	9.95	0	0
2022	1	11.56	3.28	0.00	0.00	2	1.0100102	-58.637546	161.00	11	1.100	0.900	138.84	13.08	0	0
2023	2	0.00	0.00	0.00	0.00	2	1.0200000	-55.139520	13.80	11	1.100	0.900	134.81	0.00	0	0
2024	2	0.00	0.00	0.00	0.00	2	1.0200000	-54.474073	13.80	11	1.100	0.900	134.66	0.00	0	0
2025	1	39.62	11.23	0.00	0.00	2	0.9940740	-44.124136	161.00	11	1.100	0.900	17.84	1.53	0	0
2026	1	18.57	5.26	0.00	0.00	2	1.0264805	-31.081493	161.00	10	1.100	0.900	23.86	-0.47	0	0
2027	1	3.55	1.01	0.00	0.00	2	1.0021966	-60.413018	161.00	11	1.100	0.900	143.72	14.98	0	0
2028	1	14.24	4.03	0.00	0.00	2	0.9945927	-47.249778	161.00	11	1.100	0.900	44.13	10.69	0	0
2029	1	3.20	0.91	0.00	0.00	2	1.0200518	-32.781385	161.00	10	1.100	0.900	-8.69	-0.56	0	0
2030	1	47.15	13.36	0.00	0.00	2	0.9883653	-64.039783	161.00	11	1.100	0.900	163.80	24.62	0	0
2031	1	5.77	1.63	0.00	0.00	2	1.0204588	-29.638731	161.00	10	1.100	0.900	-81.89	7.24	0	0
2032	1	3.35	0.95	0.00	0.00	2	1.0045360	-59.146912	161.00	11	1.100	0.900	142.62	15.33	0	0
2033	1	13.57	3.85	0.00	0.00	2	0.9908717	-65.552183	161.00	11	1.100	0.900	172.61	26.28	0	0
2034	1	5.34	1.51	0.00	0.00	2	1.0046209	-69.283118	161.00	11	1.100	0.900	2456.82	590.25	0	0
2035	1	4.68	1.33	0.00	0.00	2	1.0152073	-30.560737	161.00	10	1.100	0.900	-98.51	10.26	0	0
2036	1	41.59	11.78	0.00	0.00	2	0.9989410	-44.483250	161.00	11	1.100	0.900	20.61	1.77	0	0
2037	1	3.50	0.99	0.00	0.00	2	1.0166773	-63.626060	161.00	11	1.100	0.900	275.41	12.43	0	0
2038	1	2.60	0.74	0.00	0.00	2	1.0063308	-64.301324	161.00	11	1.100	0.900	159.84	21.48	0	0
2039	1	5.56	1.58	0.00	0.00	2	0.9912537	-60.671164	161.00	11	1.100	0.900	168.95	23.30	0	0
2040	1	15.90	4.51	0.00	0.00	2	1.0074385	-59.308023	161.00	11	1.100	0.900	140.74	13.75	0	0
2041	1	0.00	0.00	0.00	0.00	2	1.0280219	-27.686092	161.00	10	1.100	0.900	21.89	-0.54	0	0
2042	2	0.00	0.00	0.00	0.00	2	1.0194284	-25.110830	18.00	10	1.100	0.900	21.90	-2.89	0	0
2043	1	4.24	1.20	0.00	0.00	2	1.0050458	-69.589647	161.00	11	1.100	0.900	2400.33	573.93	0	0
2044	1	27.40	7.76	0.00	0.00	2	1.0130566	-65.383329	161.00	11	1.100	0.900	261.03	18.83	0	0
2045	1	22.61	6.40	0.00	0.00	2	0.9944497	-45.423966	161.00	11	1.100	0.900	29.44	5.70	0	0
2046	1	22.13	6.27	0.00	0.00	2	1.0045595	-68.896782	161.00	11	1.100	0.900	2515.88	603.88	0	0
2047	1	14.96	4.24	0.00	0.00	2	1.0079022	-64.729913	161.00	11	1.100	0.900	1395.57	363.42	0	0
2048	1	6.42	1.82	0.00	0.00	2	1.0237031	-31.710962	161.00	10	1.100	0.900	-50.44	2.94	0	0
2049	1	11.57	3.28	0.00	0.00	2	1.0177581	-40.946465	161.00	10	1.100	0.900	-0.79	2.06	0	0
2050	1	3.66	1.04	0.00	0.00	2	0.9941919	-63.235410	161.00	11	1.100	0.900	156.16	20.53	0	0
2051	1	17.85	5.06	0.00	0.00	2	0.9895520	-54.140347	161.00	11	1.100	0.900	119.27	25.26	0	0
2052	1	24.84	7.04	0.00	0.00	2	1.0174448	-31.963470	161.00	10	1.100	0.900	14.13	-1.11	0	0
2053	1	29.13	8.25	0.00	0.00	2	0.9910634	-59.360379	161.00	11	1.100	0.900	109.28	18.74	0	0
2054	1	0.00	0.00	0.00	0.00	2	0.9977811	-43.131310	500.00	11	1.100	0.900	19.47	0.99	0	0
2055	1	49.62	14.06	0.00	0.00	2	0.9973321	-43.960678	161.00	11	1.100	0.900	20.75	1.98	0	0
2056	2	0.00	0.00	0.00	0.00	2	0.9977811	-43.131310	18.00	11	1.100	0.900	19.47	0.99	0	0
2057	2	0.00	0.00	0.00	0.00	2	0.9900000	-38.725286	18.00	11	1.100	0.900	19.33	0.00	0	0
2058	1	0.00	0.00	0.00	0.00	2	1.0283596	-27.258033	161.00	10	1.100	0.900	22.11	-0.53	0	0
2059	2	0.00	0.00	0.00	0.00	2	1.0183617	-23.911715	13.80	10	1.100	0.900	22.09	-0.53	0	0
2060	1	3.80	1.08	0.00	0.00	2	0.9974049	-61.950951	161.00	11	1.100	0.900	151.97	19.29	0	0
2061	1	0.00	0.00	0.00	0.00	2	1.0211752	-37.427819	161.00	10	1.100	0.900	-16.07	0.88	0	0
2062	2	0.00	0.00	0.00	0.00	2	1.0200000	-35.131000	18.00	10	1.100	0.900	-16.06	0.00	0	0
2063	1	65.62	18.59	0.00	40.00	2	1.0060645	-68.258359	161.00	11	1.100	0.900	2558.98	612.12	0	0
2064	1	10.05	2.85	0.00	0.00	2	1.0031055	-60.277381	161.00	11	1.100	0.900	145.05	16.18	0	0
2065	1	78.36	22.20	0.00	94.98	2	1.0200000	-65.600732	161.00	11	1.100	0.900	317.77	0.00	0	0
2066	1	7.11	2.02	0.00	0.00	2	1.0144360	-27.628767	161.00	10	1.100	0.900	-119.17	10.10	0	0
2067	1	53.97	15.29	0.00	0.00	2	0.9923568	-44.047987	161.00	11	1.100	0.900	13.71	1.09	0	0
2068	1	5.76	1.63	0.00	0.00	2	0.9989951	-42.016304	161.00	11	1.100	0.900	-3.08	-0.22	0	0
2069	1	21.92	6.21	0.00	110.69	2	1.0200000	-69.116814	161.00	11	1.100	0.900	211.30	0.00	0	0
2070	1	0.00	0.00	0.00	0.00	2	1.0010765	-41.598099	161.00	11	1.100	0.900	-9.28	-0.19	0	0
2071	2	0.00	0.00	0.00	0.00	2	1.0000000	-37.919678	18.00	11	1.100	0.900	-9.22	0.00	0	0
2072	1	9.71	2.75	0.00	0.00	2	1.0148759	-67.240635	161.00	11	1.100	0.900	196.27	48.16	0	0
2073	1	0.00	0.00	0.00	0.00	2	1.0155141	-25.108834	161.00	10	1.100	0.900	-134.89	8.38	0	0
2074	1	0.00	0.00	0.00	0.00	2	1.0058489	-23.236834	115.00	10	1.100	0.900	-187.96	4.73	0	0
2075	1	0.00	0.00	0.00	0.00	2	1.0058489	-23.236834	115.00	10	1.100	0.900	-187.96	4.73	0	0
2076	2	0.00	0.00	0.00	0.00	2	1.0207772	-24.202140	24.00	10	1.100	0.900	-134.95	8.36	0	0
2077	1	0.00	0.00	0.00	0.00	2	1.0178964	-61.197723	161.00	11	1.100	0.900	244.47	11.61	0	0
2078	2	0.00	0.00	0.00	0.00	2	1.0200000	-57.875001	13.80	11	1.100	0.900	242.70	0.00	0	0
2079	1	4.48	1.27	0.00	0.00	2	1.0222991	-34.626738	161.00	10	1.100	0.900	-48.53	1.36	0	0
2080	1	16.93	4.80	0.00	0.00	2	0.9946218	-57.499175	161.00	11	1.100	0.900	160.85	24.69	0	0
2081	1	4.46	1.26	0.00	0.00	2	1.0009362	-65.107672	161.00	11	1.100	0.900	166.99	24.34	0	0
2082	1	59.03	16.73	0.00	0.00	2	1.0028710	-44.826631	161.00	11	1.100	0.900	20.42	1.53	0	0
2083	2	0.00	0.00	0.00	0.00	2	1.0175906	-43.247104	20.00	11	1.100	0.900	20.31	1.48	0	0
2084	2	0.00	0.00	0.00	0.00	2	1.0028710	-44.826631	20.00	11	1.100	0.900	20.42	1.53	0	0
2085	2	0.00	0.00	0.00	0.00	2	1.0028710	-44.826631	20.00	11	1.100	0.900	20.42	1.53	0	0
2086	1	2.19	0.62	0.00	0.00	2	0.9924453	-59.474499	161.00	11	1.100	0.900	165.92	23.98	0	0
2087	1	7.90	2.24	0.00	0.00	2	1.0173790	-27.472635	161.00	10	1.100	0.900	-109.69	9.05	0	0
2088	1	0.00	0.00	0.00	0.00	2	1.0000706	-41.716402	161.00	11	1.100	0.900	-5.34	-0.24	0	0
2089	2	0.00	0.00	0.00	0.00	2	1.0000000	-38.113501	24.00	11	1.100	0.900	-5.28	0.00	0	0
2090	1	2.42	0.69	0.00	0.00	2	1.0025227	-61.033299	161.00	11	1.100	0.900	146.66	16.35	0	0
2091	1	17.05	4.83	0.00	0.00	2	1.0162815	-33.978550	161.00	10	1.100	0.900	-72.42	7.20	0	0
2092	1	24.11	6.83	0.00	0.00	2	1.0054244	-66.568503	161.00	11	1.100	0.900	2569.97	618.26	0	0
2093	1	0.00	0.00	0.00	0.00	2	1.0272713	-30.621379	161.00	10	1.100	0.900	21.74	-0.43	0	0
2094	2	0.00	0.00	0.00	0.00	2	1.0272713	-30.621379	13.80	10	1.100	0.900	21.74	-0.43	0	0
2095	2	0.00	0.00	0.00	0.00	2	1.0272713	-30.621379	13.80	10	1.100	0.900	21.74	-0.43	0	0
2096	1	0.00	0.00	0.00	-122.33	2	1.0199998	-27.843170	500.00	10	1.100	0.900	9.97	0.64	0	0
2097	1	0.00	0.00	0.00	0.00	2	1.0192658	-27.282308	230.00	10	1.100	0.900	7.26	0.58	0	0
2098	1	0.00	0.00	0.00	0.00	2	1.0256479	-30.426538	161.00	10	1.100	0.900	-18.41	-1.66	0	0
2099	2	0.00	0.00	0.00	0.00	2	1.0200000	-27.699549	18.00	10	1.100	0.900	9.96	0.00	0	0
2100	2	0.00	0.00	0.00	0.00	2	1.0200000	-25.218709	18.00	10	1.100	0.900	9.93	0.00	0	0
2101	1	0.00	0.00	0.00	0.00	2	1.0105390	-62.673279	500.00	11	1.100	0.900	150.87	18.31	0	0
2102	1	0.00	0.00	0.00	0.00	2	1.0105919	-64.120882	161.00	11	1.100	0.900	176.22	27.20	0	0
2103	2	0.00	0.00	0.00	0.00	2	1.0105390	-62.673279	20.00	11	1.100	0.900	150.87	18.31	0	0
2104	2	0.00	0.00	0.00	0.00	2	1.0105390	-62.673279	20.00	11	1.100	0.900	150.87	18.31	0	0
2105	2	0.00	0.00	0.00	0.00	2	1.0105390	-62.673279	20.00	11	1.100	0.900	150.87	18.31	0	0
2106	1	14.40	4.08	0.00	0.00	2	0.9891329	-66.198009	161.00	11	1.100	0.900	178.08	28.53	0	0
2107	1	74.15	21.01	0.00	0.00	2	1.0051501	-64.992908	161.00	11	1.100	0.900	192.49	27.88	0	0
2108	1	2.14	0.61	0.00	0.00	2	0.9991016	-43.691094	161.00	10	1.100	0.900	-182.58	88.36	0	0
2109	1	33.81	9.58	0.00	0.00	2	1.0066134	-46.357265	161.00	11	1.100	0.900	29.53	4.94	0	0
...
];

%% generator data
mpc.gen = [
1004	158.25	-30.38	44.94	-30.38	1.0100	253.20	1	158.25	158.25	0.00	0.00	0.00	0.00	0.00	0.00	0	0	0	0	211.0000	0	0	0	0
1006	25.73	-4.35	7.31	-4.94	1.0000	41.16	1	25.73	25.73	0.00	0.00	0.00	0.00	0.00	0.00	0	0	0	0	34.3000	0	0	0	0
1009	61.87	-11.88	17.57	-11.88	1.0000	99.00	1	61.87	61.87	0.00	0.00	0.00	0.00	0.00	0.00	0	0	0	0	82.5000	0	0	0	0
1011	9.97	0.00	0.00	0.00	1.0000	12.00	1	10.00	3.00	0.00	0.00	0.00	0.00	0.00	0.00	0	0	0	0	10.0000	0	0	0	0
1021	149.63	-23.15	42.49	-28.73	1.0000	239.40	1	149.63	149.63	0.00	0.00	0.00	0.00	0.00	0.00	0	0	0	0	199.5000	0	0	0	0
1023	135.00	2.26	38.34	-25.92	1.0100	216.00	1	135.00	135.00	0.00	0.00	0.00	0.00	0.00	0.00	0	0	0	0	180.0000	0	0	0	0
1026	93.15	-3.42	26.45	-17.88	1.0000	149.04	1	93.15	93.15	0.00	0.00	0.00	0.00	0.00	0.00	0	0	0	0	124.2000	0	0	0	0
1033	208.50	-40.03	59.21	-40.03	1.0000	333.60	1	208.50	208.50	0.00	0.00	0.00	0.00	0.00	0.00	0	0	0	0	278.0000	0	0	0	0
1035	67.50	-6.87	19.17	-12.96	1.0000	108.00	1	67.50	67.50	0.00	0.00	0.00	0.00	0.00	0.00	0	0	0	0	90.0000	0	0	0	0
1039	110.63	-16.65	31.42	-21.24	1.0000	177.00	1	110.63	110.63	0.00	0.00	0.00	0.00	0.00	0.00	0	0	0	0	147.5000	0	0	0	0
1042	0.00	0.00	25.96	-17.55	1.0000	146.28	0	121.90	36.57	0.00	0.00	0.00	0.00	0.00	0.00	0	0	0	0	121.9000	0	0	0	0
1043	44.10	-1.16	12.52	-8.47	1.0000	70.56	1	44.10	44.10	0.00	0.00	0.00	0.00	0.00	0.00	0	0	0	0	58.8000	0	0	0	0
1048	0.00	0.00	165.53	-36.10	1.0000	390.24	0	325.20	97.56	0.00	0.00	0.00	0.00	0.00	0.00	0	0	0	0	325.2000	0	0	0	0
1049	0.00	0.00	165.53	-36.10	1.0000	390.24	0	325.20	97.56	0.00	0.00	0.00	0.00	0.00	0.00	0	0	0	0	325.2000	0	0	0	0
1050	89.15	-4.14	45.50	-9.92	1.0000	107.28	1	89.40	26.82	0.00	0.00	0.00	0.00	0.00	0.00	0	0	0	0	89.4000	0	0	0	0
1051	89.15	-2.88	45.50	-9.92	1.0000	107.28	1	89.40	26.82	0.00	0.00	0.00	0.00	0.00	0.00	0	0	0	0	89.4000	0	0	0	0
1052	89.15	-7.04	45.50	-9.92	1.0000	107.28	1	89.40	26.82	0.00	0.00	0.00	0.00	0.00	0.00	0	0	0	0	89.4000	0	0	0	0
1053	0.00	0.00	91.01	-19.85	1.0000	214.56	0	178.80	53.64	0.00	0.00	0.00	0.00	0.00	0.00	0	0	0	0	178.8000	0	0	0	0
1057	0.00	0.00	25.56	-17.28	1.0000	144.00	0	120.00	36.00	0.00	0.00	0.00	0.00	0.00	0.00	0	0	0	0	120.0000	0	0	0	0
1059	0.00	0.00	2.85	-0.62	1.0400	6.72	0	5.60	1.68	0.00	0.00	0.00	0.00	0.00	0.00	0	0	0	0	5.6000	0	0	0	0
1060	0.00	0.00	1.02	-0.22	1.0400	2.40	0	2.00	0.60	0.00	0.00	0.00	0.00	0.00	0.00	0	0	0	0	2.0000	0	0	0	0
1062	0.00	0.00	0.00	0.00	1.0100	1.80	0	1.50	0.45	0.00	0.00	0.00	0.00	0.00	0.00	0	0	0	0	1.5000	0	0	0	0
1063	0.00	0.00	0.00	0.00	1.0100	276.00	0	230.00	69.00	0.00	0.00	0.00	0.00	0.00	0.00	0	0	0	0	230.0000	0	0	0	0
1066	106.88	-0.83	30.35	-20.52	1.0000	171.00	1	106.88	106.88	0.00	0.00	0.00	0.00	0.00	0.00	0	0	0	0	142.5000	0	0	0	0
1070	120.38	25.49	34.19	-23.11	1.0400	192.60	1	120.38	120.38	0.00	0.00	0.00	0.00	0.00	0.00	0	0	0	0	160.5000	0	0	0	0
1072	191.59	30.82	97.80	-21.33	1.0100	230.56	1	192.13	57.64	0.00	0.00	0.00	0.00	0.00	0.00	0	0	0	0	192.1300	0	0	0	0
1073	191.59	35.97	97.80	-21.33	1.0100	230.56	1	192.13	57.64	0.00	0.00	0.00	0.00	0.00	0.00	0	0	0	0	192.1300	0	0	0	0
1074	191.59	32.68	97.80	-21.33	1.0100	230.56	1	192.13	57.64	0.00	0.00	0.00	0.00	0.00	0.00	0	0	0	0	192.1300	0	0	0	0
1075	191.59	34.38	97.80	-21.33	1.0100	230.56	1	192.13	57.64	0.00	0.00	0.00	0.00	0.00	0.00	0	0	0	0	192.1300	0	0	0	0
1076	0.00	0.00	97.80	-21.33	1.0100	230.56	0	192.13	57.64	0.00	0.00	0.00	0.00	0.00	0.00	0	0	0	0	192.1300	0	0	0	0
1077	0.00	0.00	97.80	-21.33	1.0100	230.56	0	192.13	57.64	0.00	0.00	0.00	0.00	0.00	0.00	0	0	0	0	192.1300	0	0	0	0
1078	95.23	18.16	48.61	-10.60	1.0100	114.60	1	95.50	28.65	0.00	0.00	0.00	0.00	0.00	0.00	0	0	0	0	95.5000	0	0	0	0
1079	95.23	-10.60	48.61	-10.60	1.0100	114.60	1	95.50	28.65	0.00	0.00	0.00	0.00	0.00	0.00	0	0	0	0	95.5000	0	0	0	0
1080	95.23	14.90	48.61	-10.60	1.0100	114.60	1	95.50	28.65	0.00	0.00	0.00	0.00	0.00	0.00	0	0	0	0	95.5000	0	0	0	0
1081	0.00	0.00	145.83	-31.80	1.0100	343.80	0	286.50	85.95	0.00	0.00	0.00	0.00	0.00	0.00	0	0	0	0	286.5000	0	0	0	0
1082	112.50	-21.60	31.95	-21.60	1.0000	180.00	1	112.50	112.50	0.00	0.00	0.00	0.00	0.00	0.00	0	0	0	0	150.0000	0	0	0	0
1084	86.62	24.60	24.60	-16.63	1.0400	138.60	1	86.62	86.62	0.00	0.00	0.00	0.00	0.00	0.00	0	0	0	0	115.5000	0	0	0	0
1088	56.25	-0.29	15.97	-10.80	1.0000	90.00	1	56.25	56.25	0.00	0.00	0.00	0.00	0.00	0.00	0	0	0	0	75.0000	0	0	0	0
1090	114.37	31.03	32.48	-21.96	1.0200	183.00	1	114.37	114.37	0.00	0.00	0.00	0.00	0.00	0.00	0	0	0	0	152.5000	0	0	0	0
1090	27.00	7.67	7.67	-5.18	1.0200	43.20	1	27.00	27.00	0.00	0.00	0.00	0.00	0.00	0.00	0	0	0	0	36.0000	0	0	0	0
2004	0.00	0.00	199.43	-43.49	1.0200	470.16	0	391.80	117.54	0.00	0.00	0.00	0.00	0.00	0.00	0	0	0	0	391.8000	0	0	0	0
2005	0.00	0.00	199.43	-43.49	1.0200	470.16	0	391.80	117.54	0.00	0.00	0.00	0.00	0.00	0.00	0	0	0	0	391.8000	0	0	0	0
2006	0.00	0.00	199.43	-43.49	1.0200	470.16	0	391.80	117.54	0.00	0.00	0.00	0.00	0.00	0.00	0	0	0	0	391.8000	0	0	0	0
2013	150.45	-28.89	42.73	-28.89	1.0000	240.72	1	150.45	150.45	0.00	0.00	0.00	0.00	0.00	0.00	0	0	0	0	200.6000	0	0	0	0
2019	0.00	0.00	46.43	-31.39	1.0400	261.60	0	218.00	65.40	0.00	0.00	0.00	0.00	0.00	0.00	0	0	0	0	218.0000	0	0	0	0
2023	83.10	18.16	42.42	-9.25	1.0200	100.00	1	83.33	25.00	0.00	0.00	0.00	0.00	0.00	0.00	0	0	0	0	83.3300	0	0	0	0
2024	166.20	26.53	84.83	-18.50	1.0200	200.00	1	166.67	50.00	0.00	0.00	0.00	0.00	0.00	0.00	0	0	0	0	166.6700	0	0	0	0
2042	59.70	-11.46	16.95	-11.46	1.0100	95.52	1	59.70	59.70	0.00	0.00	0.00	0.00	0.00	0.00	0	0	0	0	79.6000	0	0	0	0
2056	0.00	0.00	2.80	-0.73	0.9900	7.20	0	6.00	1.80	0.00	0.00	0.00	0.00	0.00	0.00	0	0	0	0	6.0000	0	0	0	0
2057	573.57	-47.07	335.52	-87.84	0.9900	864.00	1	720.00	216.00	0.00	0.00	0.00	0.00	0.00	0.00	0	0	0	0	720.0000	0	0	0	0
2059	60.00	-11.52	17.04	-11.52	1.0000	96.00	1	60.00	60.00	0.00	0.00	0.00	0.00	0.00	0.00	0	0	0	0	80.0000	0	0	0	0
2062	101.55	-4.84	28.84	-19.50	1.0200	162.48	1	101.55	101.55	0.00	0.00	0.00	0.00	0.00	0.00	0	0	0	0	135.4000	0	0	0	0
2071	112.50	-0.82	31.95	-21.60	1.0000	180.00	1	112.50	112.50	0.00	0.00	0.00	0.00	0.00	0.00	0	0	0	0	150.0000	0	0	0	0
2076	22.50	6.39	6.39	-4.32	1.0400	36.00	1	22.50	22.50	0.00	0.00	0.00	0.00	0.00	0.00	0	0	0	0	30.0000	0	0	0	0
2078	84.38	3.09	23.96	-16.20	1.0200	135.00	1	84.38	84.38	0.00	0.00	0.00	0.00	0.00	0.00	0	0	0	0	112.5000	0	0	0	0
2083	19.94	10.18	10.18	-2.22	1.0200	24.00	1	20.00	6.00	0.00	0.00	0.00	0.00	0.00	0.00	0	0	0	0	20.0000	0	0	0	0
2084	0.00	0.00	10.18	-2.22	1.0200	24.00	0	20.00	6.00	0.00	0.00	0.00	0.00	0.00	0.00	0	0	0	0	20.0000	0	0	0	0
2085	0.00	0.00	20.36	-4.44	1.0200	48.00	0	40.00	12.00	0.00	0.00	0.00	0.00	0.00	0.00	0	0	0	0	40.0000	0	0	0	0
2089	50.70	0.48	14.40	-9.73	1.0000	81.12	1	50.70	50.70	0.00	0.00	0.00	0.00	0.00	0.00	0	0	0	0	67.6000	0	0	0	0
2094	0.00	0.00	2.13	-1.44	1.0000	12.00	0	10.00	3.00	0.00	0.00	0.00	0.00	0.00	0.00	0	0	0	0	10.0000	0	0	0	0
2095	0.00	0.00	16.93	-11.45	1.0000	95.40	0	79.50	23.85	0.00	0.00	0.00	0.00	0.00	0.00	0	0	0	0	79.5000	0	0	0	0
2099	7.50	-0.05	2.13	-1.44	1.0200	12.00	1	7.50	7.50	0.00	0.00	0.00	0.00	0.00	0.00	0	0	0	0	10.0000	0	0	0	0
2100	112.50	0.58	31.95	-21.60	1.0200	180.00	1	112.50	112.50	0.00	0.00	0.00	0.00	0.00	0.00	0	0	0	0	150.0000	0	0	0	0
2103	0.00	0.00	136.28	-29.72	1.0000	321.28	0	267.73	80.32	0.00	0.00	0.00	0.00	0.00	0.00	0	0	0	0	267.7300	0	0	0	0
2104	0.00	0.00	136.28	-29.72	1.0000	321.28	0	267.73	80.32	0.00	0.00	0.00	0.00	0.00	0.00	0	0	0	0	267.7300	0	0	0	0
2105	0.00	0.00	136.28	-29.72	1.0000	321.28	0	267.73	80.32	0.00	0.00	0.00	0.00	0.00	0.00	0	0	0	0	267.7300	0	0	0	0
2115	184.20	-20.50	94.02	-20.50	1.0000	221.66	1	184.72	55.41	0.00	0.00	0.00	0.00	0.00	0.00	0	0	0	0	184.7200	0	0	0	0
2116	184.20	-20.50	94.02	-20.50	1.0000	221.66	1	184.72	55.41	0.00	0.00	0.00	0.00	0.00	0.00	0	0	0	0	184.7200	0	0	0	0
2117	184.20	-20.50	94.02	-20.50	1.0000	221.66	1	184.72	55.41	0.00	0.00	0.00	0.00	0.00	0.00	0	0	0	0	184.7200	0	0	0	0
2118	184.20	-20.50	94.02	-20.50	1.0000	221.66	1	184.72	55.41	0.00	0.00	0.00	0.00	0.00	0.00	0	0	0	0	184.7200	0	0	0	0
2119	184.20	-20.50	94.02	-20.50	1.0000	221.66	1	184.72	55.41	0.00	0.00	0.00	0.00	0.00	0.00	0	0	0	0	184.7200	0	0	0	0
2120	184.20	-2.92	94.02	-20.50	1.0100	221.66	1	184.72	55.41	0.00	0.00	0.00	0.00	0.00	0.00	0	0	0	0	184.7200	0	0	0	0
2123	136.28	-26.16	38.70	-26.16	1.0000	218.04	1	136.28	136.28	0.00	0.00	0.00	0.00	0.00	0.00	0	0	0	0	181.7000	0	0	0	0
2127	216.45	-0.02	61.47	-41.56	1.0400	346.32	1	216.45	216.45	0.00	0.00	0.00	0.00	0.00	0.00	0	0	0	0	288.6000	0	0	0	0
3004	28.13	-5.40	7.99	-5.40	1.0000	45.00	1	28.13	28.13	0.00	0.00	0.00	0.00	0.00	0.00	0	0	0	0	37.5000	0	0	0	0
3017	127.13	3.68	36.10	-24.41	1.0100	203.40	1	127.13	127.13	0.00	0.00	0.00	0.00	0.00	0.00	0	0	0	0	169.5000	0	0	0	0
3020	112.50	12.59	31.95	-21.60	1.0300	180.00	1	112.50	112.50	0.00	0.00	0.00	0.00	0.00	0.00	0	0	0	0	150.0000	0	0	0	0
3028	150.00	42.60	42.60	-28.80	1.0400	240.00	1	150.00	150.00	0.00	0.00	0.00	0.00	0.00	0.00	0	0	0	0	200.0000	0	0	0	0
3034	97.87	18.15	27.80	-18.79	1.0300	156.60	1	97.87	97.87	0.00	0.00	0.00	0.00	0.00	0.00	0	0	0	0	130.5000	0	0	0	0
3039	156.75	44.52	44.52	-30.10	1.0400	250.80	1	156.75	156.75	0.00	0.00	0.00	0.00	0.00	0.00	0	0	0	0	209.0000	0	0	0	0
3043	0.00	0.00	0.66	-0.14	1.0400	1.56	0	1.30	0.39	0.00	0.00	0.00	0.00	0.00	0.00	0	0	0	0	1.3000	0	0	0	0
3044	0.00	0.00	45.50	-9.92	1.0400	107.28	0	89.40	26.82	0.00	0.00	0.00	0.00	0.00	0.00	0	0	0	0	89.4000	0	0	0	0
3045	0.00	0.00	227.52	-49.62	1.0400	536.40	0	447.00	134.10	0.00	0.00	0.00	0.00	0.00	0.00	0	0	0	0	447.0000	0	0	0	0
3048	180.75	51.33	51.33	-34.70	1.0400	289.20	1	180.75	180.75	0.00	0.00	0.00	0.00	0.00	0.00	0	0	0	0	241.0000	0	0	0	0
3055	183.88	50.05	52.22	-35.30	1.0400	294.20	1	183.88	183.88	0.00	0.00	0.00	0.00	0.00	0.00	0	0	0	0	245.1700	0	0	0	0
3056	183.88	31.71	52.22	-35.30	1.0400	294.20	1	183.88	183.88	0.00	0.00	0.00	0.00	0.00	0.00	0	0	0	0	245.1700	0	0	0	0
3057	183.88	30.31	52.22	-35.30	1.0400	294.20	1	183.88	183.88	0.00	0.00	0.00	0.00	0.00	0.00	0	0	0	0	245.1700	0	0	0	0
3060	124.22	16.04	35.28	-23.85	1.0400	198.75	1	124.22	124.22	0.00	0.00	0.00	0.00	0.00	0.00	0	0	0	0	165.6300	0	0	0	0
3061	124.22	17.93	35.28	-23.85	1.0400	198.75	1	124.22	124.22	0.00	0.00	0.00	0.00	0.00	0.00	0	0	0	0	165.6300	0	0	0	0
3062	124.22	27.34	35.28	-23.85	1.0400	198.75	1	124.22	124.22	0.00	0.00	0.00	0.00	0.00	0.00	0	0	0	0	165.6300	0	0	0	0
3063	124.22	20.41	35.28	-23.85	1.0400	198.75	1	124.22	124.22	0.00	0.00	0.00	0.00	0.00	0.00	0	0	0	0	165.6300	0	0	0	0
3065	60.37	-8.38	17.15	-11.59	1.0000	96.60	1	60.37	60.37	0.00	0.00	0.00	0.00	0.00	0.00	0	0	0	0	80.5000	0	0	0	0
3068	112.50	30.84	31.95	-21.60	1.0400	180.00	1	112.50	112.50	0.00	0.00	0.00	0.00	0.00	0.00	0	0	0	0	150.0000	0	0	0	0
3071	127.65	-24.51	36.25	-24.51	1.0000	204.24	1	127.65	127.65	0.00	0.00	0.00	0.00	0.00	0.00	0	0	0	0	170.2000	0	0	0	0
3074	74.85	-1.88	21.26	-14.37	1.0000	119.76	1	74.85	74.85	0.00	0.00	0.00	0.00	0.00	0.00	0	0	0	0	99.8000	0	0	0	0
3081	186.75	40.91	53.04	-35.86	1.0400	298.80	1	186.75	186.75	0.00	0.00	0.00	0.00	0.00	0.00	0	0	0	0	249.0000	0	0	0	0
3084	174.37	-5.29	49.52	-33.48	1.0000	279.00	1	174.37	174.37	0.00	0.00	0.00	0.00	0.00	0.00	0	0	0	0	232.5000	0	0	0	0
3086	56.25	-0.11	15.97	-10.80	1.0000	90.00	1	56.25	56.25	0.00	0.00	0.00	0.00	0.00	0.00	0	0	0	0	75.0000	0	0	0	0
3087	0.00	0.00	15.97	-10.80	1.0000	90.00	0	75.00	22.50	0.00	0.00	0.00	0.00	0.00	0.00	0	0	0	0	75.0000	0	0	0	0
3092	150.00	30.83	42.60	-28.80	1.0400	240.00	1	150.00	150.00	0.00	0.00	0.00	0.00	0.00	0.00	0	0	0	0	200.0000	0	0	0	0
3095	90.45	21.16	25.69	-17.37	1.0400	144.72	1	90.45	90.45	0.00	0.00	0.00	0.00	0.00	0.00	0	0	0	0	120.6000	0	0	0	0
3098	120.00	21.82	34.08	-23.04	1.0400	192.00	1	120.00	120.00	0.00	0.00	0.00	0.00	0.00	0.00	0	0	0	0	160.0000	0	0	0	0
3105	44.50	-0.74	17.07	-0.74	1.0000	18.00	1	44.50	44.50	0.00	0.00	0.00	0.00	0.00	0.00	0	0	0	0	15.0000	0	0	0	0
3106	53.02	-2.57	62.48	-2.69	1.0000	65.88	1	53.02	53.02	0.00	0.00	0.00	0.00	0.00	0.00	0	0	0	0	54.9000	0	0	0	0
3110	63.00	13.69	17.89	-12.10	1.0400	100.80	1	63.00	63.00	0.00	0.00	0.00	0.00	0.00	0.00	0	0	0	0	84.0000	0	0	0	0
3112	56.10	-1.51	15.93	-10.77	1.0000	89.76	1	56.10	56.10	0.00	0.00	0.00	0.00	0.00	0.00	0	0	0	0	74.8000	0	0	0	0
3113	56.10	-0.82	15.93	-10.77	1.0000	89.76	1	56.10	56.10	0.00	0.00	0.00	0.00	0.00	0.00	0	0	0	0	74.8000	0	0	0	0
3117	47.25	-3.77	13.42	-9.07	1.0000	75.60	1	47.25	47.25	0.00	0.00	0.00	0.00	0.00	0.00	0	0	0	0	63.0000	0	0	0	0
3118	90.00	-6.63	25.56	-17.28	1.0000	144.00	1	90.00	90.00	0.00	0.00	0.00	0.00	0.00	0.00	0	0	0	0	120.0000	0	0	0	0
3120	29.70	0.00	0.00	0.00	1.0000	47.52	1	29.70	29.70	0.00	0.00	0.00	0.00	0.00	0.00	0	0	0	0	39.6000	0	0	0	0
3122	147.75	-8.91	41.96	-28.37	1.0000	236.40	1	147.75	147.75	0.00	0.00	0.00	0.00	0.00	0.00	0	0	0	0	197.0000	0	0	0	0
3127	101.25	-19.44	28.76	-19.44	1.0000	162.00	1	101.25	101.25	0.00	0.00	0.00	0.00	0.00	0.00	0	0	0	0	135.0000	0	0	0	0
3129	94.88	-18.22	26.94	-18.22	1.0000	151.80	1	94.88	94.88	0.00	0.00	0.00	0.00	0.00	0.00	0	0	0	0	126.5000	0	0	0	0
3131	85.50	24.28	24.28	-16.42	1.0200	136.80	1	85.50	85.50	0.00	0.00	0.00	0.00	0.00	0.00	0	0	0	0	114.0000	0	0	0	0
3133	0.00	0.00	26.11	-5.69	1.0400	61.56	0	51.30	15.39	0.00	0.00	0.00	0.00	0.00	0.00	0	0	0	0	51.3000	0	0	0	0
3133	0.00	0.00	26.11	-5.69	1.0400	61.56	0	51.30	15.39	0.00	0.00	0.00	0.00	0.00	0.00	0	0	0	0	51.3000	0	0	0	0
3133	0.00	0.00	26.11	-5.69	1.0400	61.56	0	51.30	15.39	0.00	0.00	0.00	0.00	0.00	0.00	0	0	0	0	51.3000	0	0	0	0
3137	75.90	21.56	21.56	-14.57	1.0300	121.44	1	75.90	75.90	0.00	0.00	0.00	0.00	0.00	0.00	0	0	0	0	101.2000	0	0	0	0
3141	68.62	-13.18	19.49	-13.18	1.0000	109.80	1	68.62	68.62	0.00	0.00	0.00	0.00	0.00	0.00	0	0	0	0	91.5000	0	0	0	0
4010	151.20	20.85	42.94	-29.03	1.0300	241.92	1	151.20	151.20	0.00	0.00	0.00	0.00	0.00	0.00	0	0	0	0	201.6000	0	0	0	0
4026	408.86	57.46	191.06	-50.02	1.0300	492.00	1	410.00	123.00	0.00	0.00	0.00	0.00	0.00	0.00	0	0	0	0	410.0000	0	0	0	0
4030	460.56	-23.08	290.04	-75.93	1.0100	746.88	1	622.40	186.72	0.00	0.00	0.00	0.00	0.00	0.00	0	0	0	0	622.4000	0	0	0	0
4045	93.40	8.96	35.86	-1.54	1.0200	37.80	1	93.40	93.40	0.00	0.00	0.00	0.00	0.00	0.00	0	0	0	0	31.5000	0	0	0	0
4046	28.50	2.93	10.94	-0.47	1.0200	11.52	1	28.50	28.50	0.00	0.00	0.00	0.00	0.00	0.00	0	0	0	0	9.6000	0	0	0	0
4047	27.48	6.02	75.10	-3.23	1.0200	79.20	1	27.48	27.48	0.00	0.00	0.00	0.00	0.00	0.00	0	0	0	0	66.0000	0	0	0	0
4050	150.00	-14.05	42.60	-28.80	1.0000	240.00	1	150.00	150.00	0.00	0.00	0.00	0.00	0.00	0.00	0	0	0	0	200.0000	0	0	0	0
4052	44.08	22.50	22.50	-4.91	1.0400	53.04	1	44.20	13.26	0.00	0.00	0.00	0.00	0.00	0.00	0	0	0	0	44.2000	0	0	0	0
4058	99.60	18.55	73.30	-15.98	1.0300	172.80	1	144.00	43.20	0.00	0.00	0.00	0.00	0.00	0.00	0	0	0	0	144.0000	0	0	0	0
4059	84.08	19.72	73.30	-15.98	1.0300	172.80	1	144.00	43.20	0.00	0.00	0.00	0.00	0.00	0.00	0	0	0	0	144.0000	0	0	0	0
4060	124.40	15.60	73.30	-15.98	1.0300	172.80	1	144.00	43.20	0.00	0.00	0.00	0.00	0.00	0.00	0	0	0	0	144.0000	0	0	0	0
4061	148.87	20.61	87.72	-19.13	1.0300	206.80	1	172.33	51.70	0.00	0.00	0.00	0.00	0.00	0.00	0	0	0	0	172.3300	0	0	0	0
4062	171.85	17.91	87.72	-19.13	1.0300	206.80	1	172.33	51.70	0.00	0.00	0.00	0.00	0.00	0.00	0	0	0	0	172.3300	0	0	0	0
4063	124.75	20.79	87.72	-19.13	1.0300	206.80	1	172.33	51.70	0.00	0.00	0.00	0.00	0.00	0.00	0	0	0	0	172.3300	0	0	0	0
4065	46.87	14.18	23.92	-5.22	1.0200	56.40	1	47.00	14.10	0.00	0.00	0.00	0.00	0.00	0.00	0	0	0	0	47.0000	0	0	0	0
4075	0.00	0.00	89.75	-19.57	1.0300	211.60	0	176.33	52.90	0.00	0.00	0.00	0.00	0.00	0.00	0	0	0	0	176.3300	0	0	0	0
4076	175.84	36.05	89.75	-19.57	1.0300	211.60	1	176.33	52.90	0.00	0.00	0.00	0.00	0.00	0.00	0	0	0	0	176.3300	0	0	0	0
4077	97.06	28.93	89.75	-19.57	1.0300	211.60	1	176.33	52.90	0.00	0.00	0.00	0.00	0.00	0.00	0	0	0	0	176.3300	0	0	0	0
4082	242.72	32.28	123.89	-27.02	1.0400	292.08	1	243.40	73.02	0.00	0.00	0.00	0.00	0.00	0.00	0	0	0	0	243.4000	0	0	0	0
4083	242.72	33.27	123.89	-27.02	1.0400	292.08	1	243.40	73.02	0.00	0.00	0.00	0.00	0.00	0.00	0	0	0	0	243.4000	0	0	0	0
4084	242.72	51.43	123.89	-27.02	1.0400	292.08	1	243.40	73.02	0.00	0.00	0.00	0.00	0.00	0.00	0	0	0	0	243.4000	0	0	0	0
4085	168.05	54.88	179.17	-39.07	1.0400	422.40	1	352.00	105.60	0.00	0.00	0.00	0.00	0.00	0.00	0	0	0	0	352.0000	0	0	0	0
4090	0.00	0.00	0.65	-0.17	1.0100	1.68	0	1.40	0.42	0.00	0.00	0.00	0.00	0.00	0.00	0	0	0	0	1.4000	0	0	0	0
4091	23.43	3.95	10.95	-2.87	1.0100	28.20	1	23.50	7.05	0.00	0.00	0.00	0.00	0.00	0.00	0	0	0	0	23.5000	0	0	0	0
4092	0.00	0.00	3.54	-0.93	1.0100	9.12	0	7.60	2.28	0.00	0.00	0.00	0.00	0.00	0.00	0	0	0	0	7.6000	0	0	0	0
4093	27.92	2.53	13.05	-3.42	1.0100	33.60	1	28.00	8.40	0.00	0.00	0.00	0.00	0.00	0.00	0	0	0	0	28.0000	0	0	0	0
4094	27.92	8.12	13.05	-3.42	1.0100	33.60	1	28.00	8.40	0.00	0.00	0.00	0.00	0.00	0.00	0	0	0	0	28.0000	0	0	0	0
4095	27.92	3.75	13.05	-3.42	1.0100	33.60	1	28.00	8.40	0.00	0.00	0.00	0.00	0.00	0.00	0	0	0	0	28.0000	0	0	0	0
4096	0.00	0.00	13.05	-3.42	1.0100	33.60	0	28.00	8.40	0.00	0.00	0.00	0.00	0.00	0.00	0	0	0	0	28.0000	0	0	0	0
4097	27.92	3.29	13.05	-3.42	1.0100	33.60	1	28.00	8.40	0.00	0.00	0.00	0.00	0.00	0.00	0	0	0	0	28.0000	0	0	0	0
4098	0.00	0.00	13.05	-3.42	1.0100	33.60	0	28.00	8.40	0.00	0.00	0.00	0.00	0.00	0.00	0	0	0	0	28.0000	0	0	0	0
4105	135.00	26.12	38.34	-25.92	1.0100	216.00	1	135.00	135.00	0.00	0.00	0.00	0.00	0.00	0.00	0	0	0	0	180.0000	0	0	0	0
4115	131.43	37.25	67.09	-14.63	1.0400	158.16	1	131.80	39.54	0.00	0.00	0.00	0.00	0.00	0.00	0	0	0	0	131.8000	0	0	0	0
4116	123.76	34.12	67.09	-14.63	1.0400	158.16	1	131.80	39.54	0.00	0.00	0.00	0.00	0.00	0.00	0	0	0	0	131.8000	0	0	0	0
4133	0.00	0.00	17.10	-3.73	1.0000	40.32	0	33.60	10.08	0.00	0.00	0.00	0.00	0.00	0.00	0	0	0	0	33.6000	0	0	0	0
4134	10.21	-3.73	17.10	-3.73	1.0000	40.32	1	33.60	10.08	0.00	0.00	0.00	0.00	0.00	0.00	0	0	0	0	33.6000	0	0	0	0
4135	10.21	-3.73	17.10	-3.73	1.0000	40.32	1	33.60	10.08	0.00	0.00	0.00	0.00	0.00	0.00	0	0	0	0	33.6000	0	0	0	0
4136	10.21	-3.73	17.10	-3.73	1.0000	40.32	1	33.60	10.08	0.00	0.00	0.00	0.00	0.00	0.00	0	0	0	0	33.6000	0	0	0	0
4137	0.00	0.00	34.20	-7.46	1.0000	80.64	0	67.20	20.16	0.00	0.00	0.00	0.00	0.00	0.00	0	0	0	0	67.2000	0	0	0	0
4138	0.00	0.00	33.59	-7.33	1.0000	79.20	0	66.00	19.80	0.00	0.00	0.00	0.00	0.00	0.00	0	0	0	0	66.0000	0	0	0	0
4142	141.00	40.04	40.04	-27.07	1.0400	225.60	1	141.00	141.00	0.00	0.00	0.00	0.00	0.00	0.00	0	0	0	0	188.0000	0	0	0	0
4153	212.40	60.32	60.32	-40.78	1.0400	339.84	1	212.40	212.40	0.00	0.00	0.00	0.00	0.00	0.00	0	0	0	0	283.2000	0	0	0	0
4160	197.22	68.62	100.66	-21.95	1.0300	237.32	1	197.77	59.33	0.00	0.00	0.00	0.00	0.00	0.00	0	0	0	0	197.7700	0	0	0	0
4161	87.79	28.72	100.66	-21.95	1.0300	237.32	1	197.77	59.33	0.00	0.00	0.00	0.00	0.00	0.00	0	0	0	0	197.7700	0	0	0	0
4162	112.46	27.68	100.66	-21.95	1.0300	237.32	1	197.77	59.33	0.00	0.00	0.00	0.00	0.00	0.00	0	0	0	0	197.7700	0	0	0	0
4163	0.00	0.00	4.58	-1.00	1.0300	10.80	0	9.00	2.70	0.00	0.00	0.00	0.00	0.00	0.00	0	0	0	0	9.0000	0	0	0	0
4166	150.75	-28.94	42.81	-28.94	1.0000	241.20	1	150.75	150.75	0.00	0.00	0.00	0.00	0.00	0.00	0	0	0	0	201.0000	0	0	0	0
4177	112.50	8.16	31.95	-21.60	1.0400	180.00	1	112.50	112.50	0.00	0.00	0.00	0.00	0.00	0.00	0	0	0	0	150.0000	0	0	0	0
4181	150.07	42.62	42.62	-28.81	1.0400	240.12	1	150.07	150.07	0.00	0.00	0.00	0.00	0.00	0.00	0	0	0	0	200.1000	0	0	0	0
4183	152.25	43.24	43.24	-29.23	1.0300	243.60	1	152.25	152.25	0.00	0.00	0.00	0.00	0.00	0.00	0	0	0	0	203.0000	0	0	0	0
4192	74.79	21.27	38.17	-8.33	1.0200	90.00	1	75.00	22.50	0.00	0.00	0.00	0.00	0.00	0.00	0	0	0	0	75.0000	0	0	0	0
4192	183.26	21.27	93.54	-20.40	1.0200	220.52	1	183.77	55.13	0.00	0.00	0.00	0.00	0.00	0.00	0	0	0	0	183.7700	0	0	0	0
4192	0.00	0.00	12.22	-2.66	1.0200	28.80	0	24.00	7.20	0.00	0.00	0.00	0.00	0.00	0.00	0	0	0	0	24.0000	0	0	0	0
4192	60.83	21.27	31.05	-6.77	1.0200	73.20	1	61.00	18.30	0.00	0.00	0.00	0.00	0.00	0.00	0	0	0	0	61.0000	0	0	0	0
4192	10.37	5.29	5.29	-1.15	1.0200	12.48	1	10.40	3.12	0.00	0.00	0.00	0.00	0.00	0.00	0	0	0	0	10.4000	0	0	0	0
4192	136.48	21.27	135.90	-29.64	1.0200	320.40	1	267.00	80.10	0.00	0.00	0.00	0.00	0.00	0.00	0	0	0	0	267.0000	0	0	0	0
4192	155.90	21.27	135.90	-29.64	1.0200	320.40	1	267.00	80.10	0.00	0.00	0.00	0.00	0.00	0.00	0	0	0	0	267.0000	0	0	0	0
4192	155.90	21.27	135.90	-29.64	1.0200	320.40	1	267.00	80.10	0.00	0.00	0.00	0.00	0.00	0.00	0	0	0	0	267.0000	0	0	0	0
4192	183.26	21.27	93.54	-20.40	1.0200	220.52	1	183.77	55.13	0.00	0.00	0.00	0.00	0.00	0.00	0	0	0	0	183.7700	0	0	0	0
4192	183.26	21.27	93.54	-20.40	1.0200	220.52	1	183.77	55.13	0.00	0.00	0.00	0.00	0.00	0.00	0	0	0	0	183.7700	0	0	0	0
4194	151.20	42.94	42.94	-29.03	1.0200	241.92	1	151.20	151.20	0.00	0.00	0.00	0.00	0.00	0.00	0	0	0	0	201.6000	0	0	0	0
4195	69.00	-13.25	19.60	-13.25	1.0000	110.40	1	69.00	69.00	0.00	0.00	0.00	0.00	0.00	0.00	0	0	0	0	92.0000	0	0	0	0
5020	90.00	-11.79	25.56	-17.28	1.0000	144.00	1	90.00	90.00	0.00	0.00	0.00	0.00	0.00	0.00	0	0	0	0	120.0000	0	0	0	0
5023	0.00	0.00	2.44	-0.53	1.0400	5.76	0	4.80	1.44	0.00	0.00	0.00	0.00	0.00	0.00	0	0	0	0	4.8000	0	0	0	0
5035	0.00	0.00	2.14	-0.47	1.0200	5.04	0	4.20	1.26	0.00	0.00	0.00	0.00	0.00	0.00	0	0	0	0	4.2000	0	0	0	0
5036	0.00	0.00	3.26	-0.71	1.0200	7.68	0	6.40	1.92	0.00	0.00	0.00	0.00	0.00	0.00	0	0	0	0	6.4000	0	0	0	0
5037	93.74	76.29	157.01	-34.24	1.0200	370.16	1	308.47	92.54	0.00	0.00	0.00	0.00	0.00	0.00	0	0	0	0	308.4700	0	0	0	0
5038	93.74	74.11	157.01	-34.24	1.0200	370.16	1	308.47	92.54	0.00	0.00	0.00	0.00	0.00	0.00	0	0	0	0	308.4700	0	0	0	0
5039	93.74	157.01	157.01	-34.24	1.0200	370.16	1	308.47	92.54	0.00	0.00	0.00	0.00	0.00	0.00	0	0	0	0	308.4700	0	0	0	0
5040	93.74	55.86	157.01	-34.24	1.0200	370.16	1	308.47	92.54	0.00	0.00	0.00	0.00	0.00	0.00	0	0	0	0	308.4700	0	0	0	0
5041	93.74	80.68	157.01	-34.24	1.0200	370.16	1	308.47	92.54	0.00	0.00	0.00	0.00	0.00	0.00	0	0	0	0	308.4700	0	0	0	0
5042	93.74	69.22	157.01	-34.24	1.0200	370.16	1	308.47	92.54	0.00	0.00	0.00	0.00	0.00	0.00	0	0	0	0	308.4700	0	0	0	0
5051	84.46	43.11	43.11	-9.40	1.0200	101.64	1	84.70	25.41	0.00	0.00	0.00	0.00	0.00	0.00	0	0	0	0	84.7000	0	0	0	0
5057	0.00	0.00	161.53	-35.23	1.0000	380.82	0	317.35	95.20	0.00	0.00	0.00	0.00	0.00	0.00	0	0	0	0	317.3500	0	0	0	0
5058	251.16	-12.74	161.53	-35.23	1.0000	380.82	1	317.35	95.20	0.00	0.00	0.00	0.00	0.00	0.00	0	0	0	0	317.3500	0	0	0	0
5065	10.57	5.40	5.40	-1.18	1.0300	12.72	1	10.60	3.18	0.00	0.00	0.00	0.00	0.00	0.00	0	0	0	0	10.6000	0	0	0	0
5066	0.00	0.00	0.92	-0.20	1.0300	2.16	0	1.80	0.54	0.00	0.00	0.00	0.00	0.00	0.00	0	0	0	0	1.8000	0	0	0	0
5067	437.05	194.05	223.08	-48.65	1.0300	525.92	1	438.27	131.48	0.00	0.00	0.00	0.00	0.00	0.00	0	0	0	0	438.2700	0	0	0	0
5068	437.05	183.38	223.08	-48.65	1.0300	525.92	1	438.27	131.48	0.00	0.00	0.00	0.00	0.00	0.00	0	0	0	0	438.2700	0	0	0	0
5069	437.05	172.20	223.08	-48.65	1.0300	525.92	1	438.27	131.48	0.00	0.00	0.00	0.00	0.00	0.00	0	0	0	0	438.2700	0	0	0	0
5089	0.00	0.00	47.57	-2.05	1.0100	50.16	0	123.90	0.00	0.00	0.00	0.00	0.00	0.00	0.00	0	0	0	0	41.8000	0	0	0	0
...
];

%% generator cost data
mpc.gencost = [
2	0	0	4	0.0000	0.000	0.000	0.00
2	0	0	4	0.0000	0.000	0.000	0.00
2	0	0	4	0.0000	0.000	0.000	0.00
2	0	0	4	0.0000	0.000	0.000	0.00
2	0	0	4	0.0000	0.000	0.000	0.00
2	0	0	4	0.0000	0.000	0.000	0.00
2	0	0	4	0.0000	0.000	0.000	0.00
2	0	0	4	0.0000	0.000	0.000	0.00
2	0	0	4	0.0000	0.000	0.000	0.00
2	0	0	4	0.0000	0.000	0.000	0.00
2	0	0	4	0.0000	0.000	0.000	0.00
2	0	0	4	0.0000	0.000	0.000	0.00
2	0	0	4	0.0000	0.001	18.641	1087.80
2	0	0	4	0.0000	0.001	18.641	1087.80
2	0	0	4	0.0000	0.001	17.464	734.10
2	0	0	4	0.0000	0.001	17.464	734.10
2	0	0	4	0.0000	0.001	17.464	734.10
2	0	0	4	0.0000	0.001	17.910	868.20
2	0	0	4	0.0000	0.000	0.000	0.00
2	0	0	4	0.0000	0.001	17.046	608.40
2	0	0	4	0.0000	0.001	17.028	603.00
2	0	0	4	0.0000	0.000	0.000	0.00
2	0	0	4	0.0000	0.000	0.000	0.00
2	0	0	4	0.0000	0.000	0.000	0.00
2	0	0	4	0.0000	0.000	0.000	0.00
2	0	0	4	0.0000	0.001	17.977	888.20
2	0	0	4	0.0000	0.001	17.977	888.20
2	0	0	4	0.0000	0.001	17.977	888.20
2	0	0	4	0.0000	0.001	17.977	888.20
2	0	0	4	0.0000	0.001	17.977	888.20
2	0	0	4	0.0000	0.001	17.977	888.20
2	0	0	4	0.0000	0.001	17.495	743.25
2	0	0	4	0.0000	0.001	17.495	743.25
2	0	0	4	0.0000	0.001	17.495	743.25
2	0	0	4	0.0000	0.001	18.448	1029.75
2	0	0	4	0.0000	0.000	0.000	0.00
2	0	0	4	0.0000	0.000	0.000	0.00
2	0	0	4	0.0000	0.000	0.000	0.00
2	0	0	4	0.0000	0.000	0.000	0.00
2	0	0	4	0.0000	0.000	0.000	0.00
2	0	0	4	0.0000	0.002	27.494	1187.70
2	0	0	4	0.0000	0.002	27.494	1187.70
2	0	0	4	0.0000	0.002	27.494	1187.70
2	0	0	4	0.0000	0.000	0.000	0.00
2	0	0	4	0.0000	0.000	0.000	0.00
2	0	0	4	0.0000	0.001	16.989	724.99
2	0	0	4	0.0000	0.001	17.394	850.01
2	0	0	4	0.0000	0.000	0.000	0.00
2	0	0	4	0.0000	0.002	17.268	236.16
2	0	0	4	0.0000	0.002	17.268	1398.51
2	0	0	4	0.0000	0.000	0.000	0.00
2	0	0	4	0.0000	0.000	0.000	0.00
2	0	0	4	0.0000	0.000	0.000	0.00
2	0	0	4	0.0000	0.000	0.000	0.00
2	0	0	4	0.0000	0.000	0.000	0.00
2	0	0	4	0.0000	0.001	16.033	630.00
2	0	0	4	0.0000	0.001	16.033	630.00
2	0	0	4	0.0000	0.001	16.126	660.00
2	0	0	4	0.0000	0.000	0.000	0.00
2	0	0	4	0.0000	0.000	0.000	0.00
2	0	0	4	0.0000	0.000	0.000	0.00
2	0	0	4	0.0000	0.000	0.000	0.00
2	0	0	4	0.0000	0.000	0.000	0.00
2	0	0	4	0.0000	0.002	26.597	1001.59
2	0	0	4	0.0000	0.002	26.597	1001.59
2	0	0	4	0.0000	0.002	26.597	1001.59
2	0	0	4	0.0000	0.001	17.482	877.08
2	0	0	4	0.0000	0.001	17.482	877.08
2	0	0	4	0.0000	0.001	17.482	877.08
2	0	0	4	0.0000	0.001	17.482	877.08
2	0	0	4	0.0000	0.001	17.482	877.08
2	0	0	4	0.0000	0.001	17.482	877.08
2	0	0	4	0.0000	0.000	0.000	0.00
2	0	0	4	0.0000	0.000	0.000	0.00
2	0	0	4	0.0000	0.000	0.000	0.00
2	0	0	4	0.0000	0.000	0.000	0.00
2	0	0	4	0.0000	0.000	0.000	0.00
2	0	0	4	0.0000	0.000	0.000	0.00
2	0	0	4	0.0000	0.000	0.000	0.00
2	0	0	4	0.0000	0.000	0.000	0.00
2	0	0	4	0.0000	0.002	19.197	601.95
2	0	0	4	0.0000	0.002	19.693	734.10
2	0	0	4	0.0000	0.002	21.704	1365.86
2	0	0	4	0.0000	0.000	0.000	0.00
2	0	0	4	0.0000	0.000	0.000	0.00
2	0	0	4	0.0000	0.000	0.000	0.00
2	0	0	4	0.0000	0.000	0.000	0.00
2	0	0	4	0.0000	0.000	0.000	0.00
2	0	0	4	0.0000	0.000	0.000	0.00
2	0	0	4	0.0000	0.000	0.000	0.00
2	0	0	4	0.0000	0.000	0.000	0.00
2	0	0	4	0.0000	0.000	0.000	0.00
2	0	0	4	0.0000	0.000	0.000	0.00
2	0	0	4	0.0000	0.000	0.000	0.00
2	0	0	4	0.0000	0.000	0.000	0.00
2	0	0	4	0.0000	0.000	0.000	0.00
2	0	0	4	0.0000	0.000	0.000	0.00
2	0	0	4	0.0000	0.000	0.000	0.00
2	0	0	4	0.0000	0.000	0.000	0.00
2	0	0	4	0.0000	0.000	0.000	0.00
2	0	0	4	0.0000	0.000	0.000	0.00
2	0	0	4	0.0000	0.000	0.000	0.00
2	0	0	4	0.0000	0.000	0.000	0.00
2	0	0	4	0.0000	0.000	0.000	0.00
2	0	0	4	0.0000	0.000	0.000	0.00
2	0	0	4	0.0000	0.000	0.000	0.00
2	0	0	4	0.0000	0.000	0.000	0.00
2	0	0	4	0.0000	0.000	0.000	0.00
2	0	0	4	0.0000	0.000	0.000	0.00
2	0	0	4	0.0000	0.000	0.000	0.00
2	0	0	4	0.0000	0.000	0.000	0.00
2	0	0	4	0.0000	0.000	0.000	0.00
2	0	0	4	0.0000	0.000	0.000	0.00
2	0	0	4	0.0000	0.000	0.000	0.00
2	0	0	4	0.0000	0.002	19.478	676.95
2	0	0	4	0.0000	0.002	19.478	676.95
2	0	0	4	0.0000	0.002	19.478	676.95
2	0	0	4	0.0000	0.000	0.000	0.00
2	0	0	4	0.0000	0.000	0.000	0.00
2	0	0	4	0.0000	0.000	0.000	0.00
2	0	0	4	0.0000	0.002	17.172	1243.08
2	0	0	4	0.0000	0.002	17.172	1349.57
2	0	0	4	0.0000	0.000	0.000	0.00
2	0	0	4	0.0000	0.000	0.000	0.00
2	0	0	4	0.0000	0.000	0.000	0.00
2	0	0	4	0.0000	0.000	0.000	0.00
2	0	0	4	0.0000	0.001	16.730	666.30
2	0	0	4	0.0000	0.001	17.213	816.00
2	0	0	4	0.0000	0.001	17.213	816.00
2	0	0	4	0.0000	0.001	17.213	816.00
2	0	0	4	0.0000	0.001	17.350	858.49
2	0	0	4	0.0000	0.001	17.350	858.49
2	0	0	4	0.0000	0.001	17.350	858.49
2	0	0	4	0.0000	0.001	16.743	670.50
2	0	0	4	0.0000	0.002	29.085	864.49
2	0	0	4	0.0000	0.002	29.085	864.49
2	0	0	4	0.0000	0.002	29.085	864.49
2	0	0	4	0.0000	0.001	17.694	965.10
2	0	0	4	0.0000	0.001	17.694	965.10
2	0	0	4	0.0000	0.001	17.694	965.10
2	0	0	4	0.0000	0.001	18.220	1128.00
2	0	0	4	0.0000	0.002	17.172	236.04
2	0	0	4	0.0000	0.002	17.172	236.63
2	0	0	4	0.0000	0.002	17.172	236.20
2	0	0	4	0.0000	0.002	17.172	236.75
2	0	0	4	0.0000	0.002	17.172	236.75
2	0	0	4	0.0000	0.002	17.172	236.75
2	0	0	4	0.0000	0.002	17.172	236.75
2	0	0	4	0.0000	0.002	17.172	236.75
2	0	0	4	0.0000	0.002	17.172	236.75
2	0	0	4	0.0000	0.000	0.000	0.00
2	0	0	4	0.0000	0.002	28.724	797.70
2	0	0	4	0.0000	0.002	28.724	797.70
2	0	0	4	0.0000	0.002	27.928	650.40
2	0	0	4	0.0000	0.002	27.928	650.40
2	0	0	4	0.0000	0.002	27.928	650.40
2	0	0	4	0.0000	0.002	27.928	650.40
2	0	0	4	0.0000	0.002	28.200	700.80
2	0	0	4	0.0000	0.002	28.190	699.00
2	0	0	4	0.0000	0.000	0.000	0.00
2	0	0	4	0.0000	0.000	0.000	0.00
2	0	0	4	0.0000	0.001	17.473	896.66
2	0	0	4	0.0000	0.001	17.473	896.66
2	0	0	4	0.0000	0.001	17.473	896.66
2	0	0	4	0.0000	0.001	16.559	613.50
2	0	0	4	0.0000	0.000	0.000	0.00
2	0	0	4	0.0000	0.000	0.000	0.00
2	0	0	4	0.0000	0.000	0.000	0.00
2	0	0	4	0.0000	0.000	0.000	0.00
2	0	0	4	0.0000	0.001	16.879	712.50
2	0	0	4	0.0000	0.001	17.405	875.66
2	0	0	4	0.0000	0.001	16.632	636.00
2	0	0	4	0.0000	0.001	16.811	691.50
2	0	0	4	0.0000	0.001	16.566	615.60
2	0	0	4	0.0000	0.001	17.808	1000.50
2	0	0	4	0.0000	0.001	17.808	1000.50
2	0	0	4	0.0000	0.001	17.808	1000.50
2	0	0	4	0.0000	0.001	17.405	875.66
2	0	0	4	0.0000	0.001	17.405	875.66
2	0	0	4	0.0000	0.000	0.000	0.00
2	0	0	4	0.0000	0.000	0.000	0.00
2	0	0	4	0.0000	0.000	0.000	0.00
2	0	0	4	0.0000	0.001	15.962	607.20
2	0	0	4	0.0000	0.001	15.177	606.30
2	0	0	4	0.0000	0.001	15.186	609.60
2	0	0	4	0.0000	0.001	16.529	1062.70
2	0	0	4	0.0000	0.001	16.529	1062.70
2	0	0	4	0.0000	0.001	16.529	1062.70
2	0	0	4	0.0000	0.001	16.529	1062.70
2	0	0	4	0.0000	0.001	16.529	1062.70
2	0	0	4	0.0000	0.001	16.529	1062.70
2	0	0	4	0.0000	0.001	16.996	727.05
2	0	0	4	0.0000	0.001	17.435	1076.03
2	0	0	4	0.0000	0.001	17.422	1076.03
2	0	0	4	0.0000	0.001	15.989	615.90
2	0	0	4	0.0000	0.001	15.948	602.70
2	0	0	4	0.0000	0.001	17.987	1223.61
2	0	0	4	0.0000	0.001	17.987	1223.61
2	0	0	4	0.0000	0.001	17.987	1223.61
2	0	0	4	0.0000	0.000	0.000	0.00
...
];

%% branch data
mpc.branch = [
1001	1064	0.005240	0.035800	0.00609	221.00	0.00	0.00	0.00000	0.000	1	0.00	0.00	67.47	10.90	-67.21	-9.73	0	0	0	0
1001	1064	0.005240	0.035800	0.00609	221.00	0.00	0.00	0.00000	0.000	1	0.00	0.00	67.47	10.90	-67.21	-9.73	0	0	0	0
1001	1071	0.004350	0.028080	0.00536	221.00	0.00	0.00	0.00000	0.000	1	0.00	0.00	-77.86	-13.84	78.14	15.15	0	0	0	0
1001	1071	0.004350	0.028080	0.00536	221.00	0.00	0.00	0.00000	0.000	1	0.00	0.00	-77.86	-13.84	78.14	15.15	0	0	0	0
1002	1007	0.077760	0.466930	0.06336	98.00	0.00	0.00	0.00000	0.000	1	0.00	0.00	1.17	-5.01	-1.16	-1.51	0	0	0	0
1010	1002	0.055520	0.135700	0.01777	98.00	0.00	0.00	0.00000	0.000	1	0.00	0.00	16.73	-2.12	-16.58	0.65	0	0	0	0
1004	1003	0.004500	0.115820	0.00000	250.00	0.00	0.00	1.00000	0.000	1	0.00	0.00	-28.27	4.89	28.30	-3.96	0	0	0	0
1022	1003	0.004850	0.020120	0.00341	221.00	0.00	0.00	0.00000	0.000	1	0.00	0.00	77.64	-2.39	-77.36	3.22	0	0	0	0
1055	1003	0.015740	0.037820	0.00513	98.00	0.00	0.00	0.00000	0.000	1	0.00	0.00	-48.68	-0.36	49.05	0.74	0	0	0	0
1004	3133	0.004200	0.030000	0.05500	523.00	0.00	0.00	0.00000	0.000	1	0.00	0.00	186.52	-35.27	-185.05	40.08	0	0	0	0
1006	1005	0.006020	0.147070	0.00000	42.00	0.00	0.00	1.00000	0.000	1	0.00	0.00	25.73	-4.35	-25.69	5.36	0	0	0	0
1025	1005	0.018420	0.082100	0.01204	149.00	0.00	0.00	0.00000	0.000	1	0.00	0.00	42.41	3.81	-42.09	-3.60	0	0	0	0
1005	1061	0.005990	0.024840	0.00422	221.00	0.00	0.00	0.00000	0.000	1	0.00	0.00	76.04	-21.71	-75.67	22.82	0	0	0	0
1067	1005	0.017110	0.041810	0.00548	98.00	0.00	0.00	0.00000	0.000	1	0.00	0.00	8.35	-20.30	-8.27	19.95	0	0	0	0
1007	1015	0.062240	0.373750	0.05072	98.00	0.00	0.00	0.00000	0.000	1	0.00	0.00	-1.28	-2.92	1.28	-2.36	0	0	0	0
1031	1007	0.048030	0.274340	0.04123	98.00	0.00	0.00	0.00000	0.000	1	0.00	0.00	4.58	-5.76	-4.57	1.60	0	0	0	0
1009	1008	0.004550	0.094710	0.00000	120.00	0.00	0.00	1.00000	0.000	1	0.00	0.00	61.87	-11.88	-61.69	15.57	0	0	0	0
1008	1032	0.045010	0.110020	0.01441	98.00	0.00	0.00	0.00000	0.000	1	0.00	0.00	57.62	-5.16	-56.18	7.23	0	0	0	0
1008	1069	0.008300	0.036280	0.00553	149.00	0.00	0.00	0.00000	0.000	1	0.00	0.00	4.07	-10.41	-4.06	9.88	0	0	0	0
1011	1010	0.007210	0.324600	0.00000	46.00	0.00	0.00	1.00000	0.000	1	0.00	0.00	9.97	0.00	-9.97	0.31	0	0	0	0
1010	1015	0.047030	0.282430	0.03833	98.00	0.00	0.00	0.00000	0.000	1	0.00	0.00	8.82	-4.01	-8.79	0.23	0	0	0	0
1010	1030	0.061600	0.369900	0.05020	98.00	0.00	0.00	0.00000	0.000	1	0.00	0.00	-15.59	2.61	15.75	-6.84	0	0	0	0
1012	1087	0.049340	0.204690	0.03473	149.00	0.00	0.00	0.00000	0.000	1	0.00	0.00	-75.98	16.15	78.95	-7.39	0	0	0	0
3051	1012	0.057100	0.249770	0.03804	149.00	0.00	0.00	0.00000	0.000	1	0.00	0.00	-69.97	16.79	73.00	-7.38	0	0	0	0
1013	1031	0.045090	0.270780	0.03675	98.00	0.00	0.00	0.00000	0.000	1	0.00	0.00	13.92	-6.31	-13.83	3.14	0	0	0	0
1047	1013	0.009470	0.061170	0.01167	221.00	0.00	0.00	0.00000	0.000	1	0.00	0.00	58.82	-9.30	-58.49	10.26	0	0	0	0
1086	1013	0.079000	0.193110	0.02529	98.00	0.00	0.00	0.00000	0.000	1	0.00	0.00	-15.06	10.33	15.34	-12.23	0	0	0	0
1014	1047	0.035660	0.147940	0.02510	149.00	0.00	0.00	0.00000	0.000	1	0.00	0.00	17.46	-0.42	-17.35	-1.69	0	0	0	0
1014	1083	0.041050	0.182930	0.02682	149.00	0.00	0.00	0.00000	0.000	1	0.00	0.00	-19.68	-0.21	19.83	-1.86	0	0	0	0
1016	1034	0.018280	0.109760	0.01489	98.00	0.00	0.00	0.00000	0.000	1	0.00	0.00	-16.46	14.09	16.54	-15.10	0	0	0	0
1068	1016	0.027730	0.158370	0.02380	98.00	0.00	0.00	0.00000	0.000	1	0.00	0.00	-13.44	-17.79	13.57	16.14	0	0	0	0
1018	1017	0.032270	0.078870	0.01033	98.00	0.00	0.00	0.00000	0.000	1	0.00	0.00	26.59	0.80	-26.35	-1.23	0	0	0	0
1017	1029	0.032440	0.141880	0.02161	149.00	0.00	0.00	0.00000	0.000	1	0.00	0.00	36.62	-22.52	-36.01	23.05	0	0	0	0
1037	1017	0.007520	0.033520	0.00491	221.00	0.00	0.00	0.00000	0.000	1	0.00	0.00	-57.38	-7.66	57.64	8.37	0	0	0	0
1047	1017	0.036000	0.156000	0.02400	150.00	0.00	0.00	0.00000	0.000	1	0.00	0.00	89.08	-0.30	-86.25	10.19	0	0	0	0
1024	1018	0.010940	0.065720	0.00892	98.00	0.00	0.00	0.00000	0.000	1	0.00	0.00	26.73	0.41	-26.65	-0.81	0	0	0	0
1019	1040	0.049780	0.206510	0.03504	149.00	0.00	0.00	0.00000	0.000	1	0.00	0.00	-13.94	4.51	14.06	-7.51	0	0	0	0
1019	1045	0.015220	0.037200	0.00487	221.00	0.00	0.00	0.00000	0.000	1	0.00	0.00	104.91	17.93	-103.18	-14.19	0	0	0	0
1019	1071	0.004400	0.028000	0.00540	225.00	0.00	0.00	0.00000	0.000	1	0.00	0.00	-43.91	51.51	44.11	-50.75	0	0	0	0
1071	1019	0.004400	0.028000	0.00540	225.00	0.00	0.00	0.00000	0.000	1	0.00	0.00	44.11	-50.75	-43.91	51.51	0	0	0	0
1019	1084	0.030000	0.160000	0.02500	220.00	0.00	0.00	0.00000	0.000	1	0.00	0.00	-64.93	-0.13	66.20	4.33	0	0	0	0
1021	1020	0.003270	0.078120	0.00000	250.00	0.00	0.00	1.00000	0.000	1	0.00	0.00	149.63	-23.15	-148.88	41.06	0	0	0	0
1025	1020	0.008280	0.034340	0.00583	149.00	0.00	0.00	0.00000	0.000	1	0.00	0.00	50.37	-22.92	-50.13	23.32	0	0	0	0
1084	1020	0.010560	0.063370	0.00860	221.00	0.00	0.00	0.00000	0.000	1	0.00	0.00	-33.85	9.64	33.98	-9.78	0	0	0	0
1020	3059	0.018900	0.060000	0.00600	300.00	0.00	0.00	0.00000	0.000	1	0.00	0.00	63.28	1.57	-62.55	0.12	0	0	0	0
1020	3130	0.009960	0.069380	0.01134	221.00	0.00	0.00	0.00000	0.000	1	0.00	0.00	101.75	13.77	-100.74	-7.89	0	0	0	0
1023	1022	0.005350	0.117330	0.00000	250.00	0.00	0.00	1.00000	0.000	1	0.00	0.00	135.00	2.26	-134.04	18.71	0	0	0	0
1022	1028	0.014330	0.092530	0.01765	221.00	0.00	0.00	0.00000	0.000	1	0.00	0.00	28.20	-8.16	-28.08	7.11	0	0	0	0
1022	1028	0.014330	0.092530	0.01765	221.00	0.00	0.00	0.00000	0.000	1	0.00	0.00	28.20	-8.16	-28.08	7.11	0	0	0	0
1024	1090	0.014140	0.063030	0.00924	149.00	0.00	0.00	0.00000	0.000	1	0.00	0.00	-89.77	-18.27	90.97	22.67	0	0	0	0
1026	1025	0.004200	0.180460	0.00000	200.00	0.00	0.00	1.00000	0.000	1	0.00	0.00	93.15	-3.42	-92.79	19.10	0	0	0	0
1027	1045	0.025050	0.109570	0.01669	221.00	0.00	0.00	0.00000	0.000	1	0.00	0.00	-15.00	28.43	15.26	-28.89	0	0	0	0
1056	1027	0.031210	0.076300	0.00999	250.00	0.00	0.00	0.00000	0.000	1	0.00	0.00	88.62	-13.83	-86.21	18.69	0	0	0	0
1028	3109	0.004280	0.018750	0.00286	250.00	0.00	0.00	0.00000	0.000	1	0.00	0.00	46.15	-17.06	-46.05	17.20	0	0	0	0
1029	1056	0.020540	0.117330	0.01763	221.00	0.00	0.00	0.00000	0.000	1	0.00	0.00	-47.17	-6.42	47.64	7.25	0	0	0	0
1030	1038	0.074040	0.422850	0.06354	98.00	0.00	0.00	0.00000	0.000	1	0.00	0.00	-23.68	1.08	24.10	-5.23	0	0	0	0
1083	1030	0.065370	0.373340	0.05610	98.00	0.00	0.00	0.00000	0.000	1	0.00	0.00	16.87	-3.53	-16.69	-1.23	0	0	0	0
1033	1032	0.002830	0.067580	0.00000	170.00	0.00	0.00	1.00000	0.000	1	0.00	0.00	-119.78	34.12	120.21	-23.98	0	0	0	0
1032	1036	0.019560	0.117460	0.01594	98.00	0.00	0.00	0.00000	0.000	1	0.00	0.00	3.98	1.13	-3.97	-2.70	0	0	0	0
1038	1032	0.045000	0.110000	0.01500	155.00	0.00	0.00	0.00000	0.000	1	0.00	0.00	70.21	-11.77	-68.01	15.62	0	0	0	0
1033	1081	0.003000	0.031000	0.05900	548.00	0.00	0.00	0.00000	0.000	1	0.00	0.00	102.83	-22.01	-102.51	19.17	0	0	0	0
1033	3050	0.013900	0.136000	0.26200	647.00	0.00	0.00	0.00000	0.000	1	0.00	0.00	225.46	-0.45	-218.60	40.54	0	0	0	0
1035	1034	0.004380	0.084960	0.00000	130.00	0.00	0.00	1.00000	0.000	1	0.00	0.00	67.50	-6.87	-67.30	10.78	0	0	0	0
1067	1034	0.007950	0.047710	0.00647	98.00	0.00	0.00	0.00000	0.000	1	0.00	0.00	-50.55	-3.74	50.75	4.32	0	0	0	0
1088	1036	0.020650	0.117930	0.01772	98.00	0.00	0.00	0.00000	0.000	1	0.00	0.00	9.64	-0.51	-9.62	-1.15	0	0	0	0
1037	1071	0.006690	0.043190	0.00824	300.00	0.00	0.00	0.00000	0.000	1	0.00	0.00	-44.86	-21.31	45.03	21.63	0	0	0	0
1039	1038	0.002010	0.085910	0.00000	200.00	0.00	0.00	1.00000	0.000	1	0.00	0.00	110.63	-16.65	-110.38	27.41	0	0	0	0
1082	1038	0.011150	0.049690	0.00729	149.00	0.00	0.00	0.00000	0.000	1	0.00	0.00	61.61	-7.41	-61.20	8.49	0	0	0	0
1083	1038	0.010000	0.050000	0.00700	221.00	0.00	0.00	0.00000	0.000	1	0.00	0.00	-76.65	21.23	77.26	-18.90	0	0	0	0
1040	1090	0.029910	0.133290	0.01955	149.00	0.00	0.00	0.00000	0.000	1	0.00	0.00	-58.42	-5.06	59.45	7.70	0	0	0	0
1042	1041	0.004190	0.111230	0.00000	145.00	0.00	0.00	1.00000	0.000	1	0.00	0.00	0.00	0.00	0.00	0.00	0	0	0	0
1043	1041	0.003000	0.128440	0.00000	95.00	0.00	0.00	1.00000	0.000	1	0.00	0.00	44.10	-1.16	-44.04	3.66	0	0	0	0
1065	1041	0.003860	0.022030	0.00331	98.00	0.00	0.00	0.00000	0.000	1	0.00	0.00	15.46	8.48	-15.45	-8.74	0	0	0	0
1041	1067	0.003930	0.017220	0.00262	149.00	0.00	0.00	0.00000	0.000	1	0.00	0.00	59.49	5.08	-59.35	-4.73	0	0	0	0
1044	3019	0.038570	0.171920	0.02521	149.00	0.00	0.00	0.00000	0.000	1	0.00	0.00	46.51	-17.36	-45.59	18.88	0	0	0	0
3130	1044	0.027310	0.190290	0.03111	221.00	0.00	0.00	0.00000	0.000	1	0.00	0.00	62.26	-8.90	-61.20	13.20	0	0	0	0
1045	1064	0.005450	0.037940	0.00620	221.00	0.00	0.00	0.00000	0.000	1	0.00	0.00	-10.64	15.15	10.66	-15.60	0	0	0	0
1087	1046	0.032620	0.142690	0.02173	149.00	0.00	0.00	0.00000	0.000	1	0.00	0.00	77.99	-12.78	-76.04	19.06	0	0	0	0
1046	3009	0.056540	0.234540	0.03980	149.00	0.00	0.00	0.00000	0.000	1	0.00	0.00	64.96	-9.77	-62.62	15.37	0	0	0	0
1048	1047	0.003350	0.065760	0.00000	390.00	0.00	0.00	1.00000	0.000	1	0.00	0.00	0.00	0.00	0.00	0.00	0	0	0	0
1049	1047	0.002760	0.117830	0.00000	390.00	0.00	0.00	1.00000	0.000	1	0.00	0.00	0.00	0.00	0.00	0.00	0	0	0	0
1050	1047	0.003130	0.099410	0.00000	124.00	0.00	0.00	1.00000	0.000	1	0.00	0.00	89.15	-4.14	-88.90	12.06	0	0	0	0
1051	1047	0.005600	0.128300	0.00000	117.00	0.00	0.00	1.00000	0.000	1	0.00	0.00	89.15	-2.88	-88.70	13.09	0	0	0	0
1052	1047	0.003680	0.082600	0.00000	110.00	0.00	0.00	1.00000	0.000	1	0.00	0.00	89.15	-7.04	-88.86	13.64	0	0	0	0
1053	1047	0.002300	0.088080	0.00000	250.00	0.00	0.00	1.00000	0.000	1	0.00	0.00	-80.22	18.95	80.37	-13.17	0	0	0	0
1047	1085	0.009470	0.061170	0.01167	221.00	0.00	0.00	0.00000	0.000	1	0.00	0.00	55.53	-14.32	-55.23	15.12	0	0	0	0
1053	1081	0.003000	0.030000	0.06000	548.00	0.00	0.00	0.00000	0.000	1	0.00	0.00	80.22	-18.95	-80.03	14.66	0	0	0	0
1054	1056	0.022020	0.096330	0.01467	149.00	0.00	0.00	0.00000	0.000	1	0.00	0.00	-12.02	-14.96	12.09	13.78	0	0	0	0
1089	1054	0.087370	0.213570	0.02796	98.00	0.00	0.00	0.00000	0.000	1	0.00	0.00	3.11	-13.13	-2.97	10.71	0	0	0	0
1055	1089	0.049820	0.121790	0.01595	98.00	0.00	0.00	0.00000	0.000	1	0.00	0.00	44.70	-0.77	-43.71	1.63	0	0	0	0
1057	1056	0.003150	0.131200	0.00000	160.00	0.00	0.00	1.00000	0.000	1	0.00	0.00	0.00	0.00	0.00	0.00	0	0	0	0
1056	1061	0.022670	0.129460	0.01945	150.00	0.00	0.00	0.00000	0.000	1	0.00	0.00	-59.48	22.55	60.37	-19.45	0	0	0	0
1056	1065	0.022690	0.129620	0.01948	250.00	0.00	0.00	0.00000	0.000	1	0.00	0.00	-88.87	32.63	90.84	-23.38	0	0	0	0
1059	1058	0.026550	0.461870	0.00000	33.00	0.00	0.00	1.00000	0.000	1	0.00	0.00	0.00	0.00	0.00	0.00	0	0	0	0
1060	1058	0.008940	0.388540	0.00000	27.00	0.00	0.00	1.00000	0.000	1	0.00	0.00	0.00	0.00	0.00	0.00	0	0	0	0
1069	1058	0.007400	0.051550	0.00843	221.00	0.00	0.00	0.00000	0.000	1	0.00	0.00	87.17	-4.73	-86.63	7.60	0	0	0	0
1069	1058	0.007400	0.051550	0.00843	221.00	0.00	0.00	0.00000	0.000	1	0.00	0.00	87.17	-4.73	-86.63	7.60	0	0	0	0
1058	1087	0.015730	0.109560	0.01791	221.00	0.00	0.00	0.00000	0.000	1	0.00	0.00	79.91	-9.51	-78.93	14.46	0	0	0	0
1058	1087	0.015730	0.109560	0.01791	221.00	0.00	0.00	0.00000	0.000	1	0.00	0.00	79.91	-9.51	-78.93	14.46	0	0	0	0
1062	1061	0.016300	0.317870	0.00000	29.00	0.00	0.00	1.00000	0.000	1	0.00	0.00	0.00	0.00	0.00	0.00	0	0	0	0
1063	1061	0.005670	0.104090	0.00000	260.00	0.00	0.00	1.00000	0.000	1	0.00	0.00	0.00	0.00	0.00	0.00	0	0	0	0
1061	3042	0.054000	0.180000	0.02800	221.00	0.00	0.00	0.00000	0.000	1	0.00	0.00	15.30	-3.36	-15.17	0.96	0	0	0	0
1066	1065	0.005080	0.123150	0.00000	200.00	0.00	0.00	1.00000	0.000	1	0.00	0.00	106.88	-0.83	-106.30	14.90	0	0	0	0
1088	1068	0.029620	0.169210	0.02543	98.00	0.00	0.00	0.00000	0.000	1	0.00	0.00	46.61	0.21	-45.96	0.96	0	0	0	0
1070	1069	0.002970	0.070000	0.00000	220.00	0.00	0.00	1.00000	0.000	1	0.00	0.00	120.38	25.49	-119.96	-15.70	0	0	0	0
1082	1069	0.021370	0.095200	0.01396	149.00	0.00	0.00	0.00000	0.000	1	0.00	0.00	50.89	-14.19	-50.32	15.27	0	0	0	0
1072	1071	0.005290	0.085510	0.00000	240.00	0.00	0.00	1.00000	0.000	1	0.00	0.00	191.59	30.82	-189.64	0.75	0	0	0	0
1073	1071	0.004990	0.142540	0.00000	240.00	0.00	0.00	1.00000	0.000	1	0.00	0.00	191.59	35.97	-189.73	17.13	0	0	0	0
1074	1071	0.005750	0.124530	0.00000	240.00	0.00	0.00	1.00000	0.000	1	0.00	0.00	191.59	32.68	-189.46	13.43	0	0	0	0
1075	1071	0.003730	0.099670	0.00000	240.00	0.00	0.00	1.00000	0.000	1	0.00	0.00	191.59	34.38	-190.21	2.64	0	0	0	0
...